
.MODEL QPL PNP (
+   IS =  1e-16
+   BF =  10
+   BR =  0.96
+   RB =  20
+   RE =  0
+   RC =  0
+   CJS =  0
+   CJE =  6e-12
+   CJC =  4e-12
+   VJE =  0.75
+   VJC =  0.75
+   TF =  1e-09
+   TR =  2e-08
+   MJE =  0
+   MJC =  0
+   VA =  50
+   ISE =  0
+   IKF =  0
+   NE =  0
+   NF =  1
+   NR =  1
+   VAR =  1e+30
+   IKR =  1e+30
+   ISC =  0
+   NC =  2
+   IRB =  1e+30
+   RBM =  0
+   XTF =  0
+   VTF =  1e+30
+   ITF =  0
+   PTF =  0
+   XCJC =  1
+   VJS =  0.75
+   MJS =  0
+   XTB =  0
+   EG =  1.11
+   XTI =  3
+   KF =  0
+   AF =  1
+   FC =  0.5
+   TNOM =  27
)
