*         COPYRIGHT  Zetex Spice Model Library 2V0
*                      (Last Revision Sept./95)
*
*
*
*
*ZETEX  2N6727 Spice model   Last revision  23/1/91
*
.MODEL Q2N6727 PNP IS =2.715E-13 BF =170 VAF=70 NF =1.004 IKF=2.75 ISE=1E-13
+NE =1.535 BR =23 VAR=40 NR =1.005 IKR=.55 ISC=5.15E-14 NC =1.13 RB =.07
+RE =.065 RC =.085 CJE=360E-12 TF =.94E-9 CJC=90E-12 TR =60E-9 VJC=.705
+MJC=.46
*
*ZETEX  BC177AP Spice model    Last revision  4/90
*
.MODEL BC177AP PNP IS =1.149E-14 ISE=5E-14 NF =.9872 NE =1.4 BF =330 BR =13
+IKF=.1 IKR=.012 ISC=1.43E-14 NC =1.1 NR =.996 RB =.2 RE =.4 RC =.95 VAR=8.15
+VAF=84.56 CJE=16E-12 TF =.493E-9 CJC=10.5E-12 TR =73.55E-9 MJC=.415 VJC=.565
*
*ZETEX  BC178AP Spice model    Last revision  4/90
*
.MODEL BC178AP PNP IS =1.149E-14 ISE=5E-14 NF =.9872 NE =1.4 BF =330 BR =13
+IKF=.1 IKR=.012 ISC=1.43E-14 NC =1.1 NR =.996 RB =.2 RE =.4 RC =.95 VAR=8.15
+VAF=84.56 CJE=16E-12 TF =.493E-9 CJC=10.5E-12 TR =73.55E-9 MJC=.415 VJC=.565
*ZETEX  FZT705 Darlington Spice Subcircuit   Last revision  9/8/90
*
.SUBCKT FZT705 1 2 3
*              C B E
Q1 1 2 4 SUB704
Q2 1 4 3 SUB704 4
*
.MODEL SUB704 PNP IS =3.35584E-14 BF =85 VAF=212 NF =1.002 IKF=.817
+ISE=3.6E-13 NE =4.1 BR =24 VAR=6 NR =.999 IKR=.114 ISC=1.406E-13 NC =1.13
+RB =1.1 RE =.4 RC =.0339 CJE=100E-12 CJC=37E-12 VJC=1.045 MJC=.595
.ENDS FZT705

*ZETEX   2SA1213 Spice model       Last revision  17/7/90
*
.MODEL Q2SA1213 PNP IS =2.6E-13 BF =210 VAF=27 IKF=7 ISE=1.2E-13 NE =1.43 
+BR =70 VAR=14 IKR=.6 ISC=12.04E-13 NC =1.4474 NF =.999 NR =.982 RB =.3 
+RE =.065 RC =.04 CJE=410E-12 TF =.65E-9 CJC=140E-12 TR =12E-9 MJC=.35 
+VJC=.305
*
*ZETEX  BC177AP Spice model    Last revision  4/90
*
.MODEL BC177AP PNP IS =1.149E-14 ISE=5E-14 NF =.9872 NE =1.4 BF =330 BR =13
+IKF=.1 IKR=.012 ISC=1.43E-14 NC =1.1 NR =.996 RB =.2 RE =.4 RC =.95 VAR=8.15
+VAF=84.56 CJE=16E-12 TF =.493E-9 CJC=10.5E-12 TR =73.55E-9 MJC=.415 VJC=.565
*
*ZETEX  BC178AP Spice model    Last revision  4/90
*
.MODEL BC178AP PNP IS =1.149E-14 ISE=5E-14 NF =.9872 NE =1.4 BF =330 BR =13
+IKF=.1 IKR=.012 ISC=1.43E-14 NC =1.1 NR =.996 RB =.2 RE =.4 RC =.95 VAR=8.15
+VAF=84.56 CJE=16E-12 TF =.493E-9 CJC=10.5E-12 TR =73.55E-9 MJC=.415 VJC=.565
*
*ZETEX  BC212AP Spice model    Last revision  4/90
*
.MODEL BC212AP PNP IS =1.149E-14 ISE=5E-14 NF =.9872 NE =1.4 BF =330 BR =13
+IKF=.1 IKR=.012 ISC=1.43E-14 NC =1.1 NR =.996 RB =.2 RE =.4 RC =.95 VAR=8.15
+VAF=84.56 CJE=16E-12 TF =.493E-9 CJC=10.5E-12 TR =73.55E-9 MJC=.415 VJC=.565
*
*ZETEX  BC213AP Spice model    Last revision  4/90
*
.MODEL BC213AP PNP IS =1.149E-14 ISE=5E-14 NF =.9872 NE =1.4 BF =330 BR =13
+IKF=.1 IKR=.012 ISC=1.43E-14 NC =1.1 NR =.996 RB =.2 RE =.4 RC =.95 VAR=8.15
+VAF=84.56 CJE=16E-12 TF =.493E-9 CJC=10.5E-12 TR =73.55E-9 MJC=.415 VJC=.565
*
*ZETEX  BC307AP Spice model    Last revision  4/90
*
.MODEL BC307AP PNP IS =1.149E-14 ISE=5E-14 NF =.9872 NE =1.4 BF =330 BR =13
+IKF=.1 IKR=.012 ISC=1.43E-14 NC =1.1 NR =.996 RB =.2 RE =.4 RC =.95 VAR=8.15
+VAF=84.56 CJE=16E-12 TF =.493E-9 CJC=10.5E-12 TR =73.55E-9 MJC=.415 VJC=.565
*
*ZETEX  BC308AP Spice model    Last revision  4/90
*
.MODEL BC308AP PNP IS =1.149E-14 ISE=5E-14 NF =.9872 NE =1.4 BF =330 BR =13
+IKF=.1 IKR=.012 ISC=1.43E-14 NC =1.1 NR =.996 RB =.2 RE =.4 RC =.95 VAR=8.15
+VAF=84.56 CJE=16E-12 TF =.493E-9 CJC=10.5E-12 TR =73.55E-9 MJC=.415 VJC=.565
*
*ZETEX  BC415AP Spice model    Last revision  4/90
*
.MODEL BC415AP PNP IS =1.149E-14 ISE=5E-14 NF =.9872 NE =1.4 BF =330 BR =13
+IKF=.1 IKR=.012 ISC=1.43E-14 NC =1.1 NR =.996 RB =.2 RE =.4 RC =.95 VAR=8.15
+VAF=84.56 CJE=16E-12 TF =.493E-9 CJC=10.5E-12 TR =73.55E-9 MJC=.415 VJC=.565
*
*ZETEX  BC416AP Spice model    Last revision  4/90
*
.MODEL BC416AP PNP IS =1.149E-14 ISE=5E-14 NF =.9872 NE =1.4 BF =330 BR =13
+IKF=.1 IKR=.012 ISC=1.43E-14 NC =1.1 NR =.996 RB =.2 RE =.4 RC =.95 VAR=8.15
+VAF=84.56 CJE=16E-12 TF =.493E-9 CJC=10.5E-12 TR =73.55E-9 MJC=.415 VJC=.565
*
*ZETEX  BC556AP Spice model    Last revision  4/90
*
.MODEL BC556AP PNP IS =1.149E-14 ISE=5E-14 NF =.9872 NE =1.4 BF =330 BR =13
+IKF=.1 IKR=.012 ISC=1.43E-14 NC =1.1 NR =.996 RB =.2 RE =.4 RC =.95 VAR=8.15
+VAF=84.56 CJE=16E-12 TF =.493E-9 CJC=10.5E-12 TR =73.55E-9 MJC=.415 VJC=.565
*
*ZETEX  BC557AP Spice model    Last revision  4/90
*
.MODEL BC557AP PNP IS =1.149E-14 ISE=5E-14 NF =.9872 NE =1.4 BF =330 BR =13
+IKF=.1 IKR=.012 ISC=1.43E-14 NC =1.1 NR =.996 RB =.2 RE =.4 RC =.95 VAR=8.15
+VAF=84.56 CJE=16E-12 TF =.493E-9 CJC=10.5E-12 TR =73.55E-9 MJC=.415 VJC=.565
*
*ZETEX  BC558AP Spice model    Last revision  4/90
*
.MODEL BC558AP PNP IS =1.149E-14 ISE=5E-14 NF =.9872 NE =1.4 BF =330 BR =13
+IKF=.1 IKR=.012 ISC=1.43E-14 NC =1.1 NR =.996 RB =.2 RE =.4 RC =.95 VAR=8.15
+VAF=84.56 CJE=16E-12 TF =.493E-9 CJC=10.5E-12 TR =73.55E-9 MJC=.415 VJC=.565
*
*ZETEX  BC559AP Spice model    Last revision  4/90
*
.MODEL BC559AP PNP IS =1.149E-14 ISE=5E-14 NF =.9872 NE =1.4 BF =330 BR =13
+IKF=.1 IKR=.012 ISC=1.43E-14 NC =1.1 NR =.996 RB =.2 RE =.4 RC =.95 VAR=8.15
+VAF=84.56 CJE=16E-12 TF =.493E-9 CJC=10.5E-12 TR =73.55E-9 MJC=.415 VJC=.565
*
*ZETEX  BC560AP Spice model    Last revision  4/90
*
.MODEL BC560AP PNP IS =1.149E-14 ISE=5E-14 NF =.9872 NE =1.4 BF =330 BR =13
+IKF=.1 IKR=.012 ISC=1.43E-14 NC =1.1 NR =.996 RB =.2 RE =.4 RC =.95 VAR=8.15
+VAF=84.56 CJE=16E-12 TF =.493E-9 CJC=10.5E-12 TR =73.55E-9 MJC=.415 VJC=.565
*
*ZETEX  BC80716 Spice model    Last revision  10/1/90
*
.MODEL BC80716 PNP IS =3.2E-14 BF =170 VAF=45 NF =0.977 IKF=1.25 ISE=7E-15
+NE =1.35 BR =50 VAR=50 NR =.986 IKR=0.15 ISC=0.9E-14 NC =1.08 RB =0.16
+RE =0.195 RC =0.185 CJE=104E-12 TF =0.7E-9 CJC=30.5-12 TR =3E-9 VJC=0.395
+MJC=0.415
*
*
*ZETEX  BC80816 Spice model    Last revision  10/1/90
*
.MODEL BC80816 PNP IS =3.2E-14 BF =170 VAF=45 NF =0.977 IKF=1.25 ISE=7E-15
+NE =1.35 BR =50 VAR=50 NR =.986 IKR=0.15 ISC=0.9E-14 NC =1.08 RB =0.16
+RE =0.195 RC =0.185 CJE=104E-12 TF =0.7E-9 CJC=30.5-12 TR =3E-9 VJC=0.395
+MJC=0.415
*
*ZETEX  BC856A Spice model    Last revision  4/90
*
.MODEL BC856A PNP IS =1.149E-14 ISE=5E-14 NF =.9872 NE =1.4 BF =330 BR =13
+IKF=.1 IKR=.012 ISC=1.43E-14 NC =1.1 NR =.996 RB =.2 RE =.4 RC =.95 VAR=8.15
+VAF=84.56 CJE=16E-12 TF =.493E-9 CJC=10.5E-12 TR =73.55E-9 MJC=.415 VJC=.565
*
*ZETEX  BC857A Spice model    Last revision  4/90
*
.MODEL BC857A PNP IS =1.149E-14 ISE=5E-14 NF =.9872 NE =1.4 BF =330 BR =13
+IKF=.1 IKR=.012 ISC=1.43E-14 NC =1.1 NR =.996 RB =.2 RE =.4 RC =.95 VAR=8.15
+VAF=84.56 CJE=16E-12 TF =.493E-9 CJC=10.5E-12 TR =73.55E-9 MJC=.415 VJC=.565
*
*ZETEX  BC858A Spice model    Last revision  4/90
*
.MODEL BC858A PNP IS =1.149E-14 ISE=5E-14 NF =.9872 NE =1.4 BF =330 BR =13
+IKF=.1 IKR=.012 ISC=1.43E-14 NC =1.1 NR =.996 RB =.2 RE =.4 RC =.95 VAR=8.15
+VAF=84.56 CJE=16E-12 TF =.493E-9 CJC=10.5E-12 TR =73.55E-9 MJC=.415 VJC=.565
*
*ZETEX  BC859A Spice model    Last revision  4/90
*
.MODEL BC859A PNP IS =1.149E-14 ISE=5E-14 NF =.9872 NE =1.4 BF =330 BR =13
+IKF=.1 IKR=.012 ISC=1.43E-14 NC =1.1 NR =.996 RB =.2 RE =.4 RC =.95 VAR=8.15
+VAF=84.56 CJE=16E-12 TF =.493E-9 CJC=10.5E-12 TR =73.55E-9 MJC=.415 VJC=.565
*
*ZETEX  BC860A Spice model    Last revision  4/90
*
.MODEL BC860A PNP IS =1.149E-14 ISE=5E-14 NF =.9872 NE =1.4 BF =330 BR =13
+IKF=.1 IKR=.012 ISC=1.43E-14 NC =1.1 NR =.996 RB =.2 RE =.4 RC =.95 VAR=8.15
+VAF=84.56 CJE=16E-12 TF =.493E-9 CJC=10.5E-12 TR =73.55E-9 MJC=.415 VJC=.565
*
*ZETEX  BCW29 Spice model    Last revision  4/90
*
.MODEL BCW29 PNP IS =1.149E-14 ISE=5E-14 NF =.9872 NE =1.4 BF =330 BR =13
+IKF=.1 IKR=.012 ISC=1.43E-14 NC =1.1 NR =.996 RB =.2 RE =.4 RC =.95 VAR=8.15
+VAF=84.56 CJE=16E-12 TF =.493E-9 CJC=10.5E-12 TR =73.55E-9 MJC=.415 VJC=.565
*
*ZETEX  BCW61A Spice model    Last revision  4/90
*
.MODEL BCW61A PNP IS =1.149E-14 ISE=5E-14 NF =.9872 NE =1.4 BF =330 BR =13
+IKF=.1 IKR=.012 ISC=1.43E-14 NC =1.1 NR =.996 RB =.2 RE =.4 RC =.95 VAR=8.15
+VAF=84.56 CJE=16E-12 TF =.493E-9 CJC=10.5E-12 TR =73.55E-9 MJC=.415 VJC=.565
*
*ZETEX  BCW67A Spice model    Last revision  10/1/90
*
.MODEL BCW67A PNP IS =3.2E-14 BF =170 VAF=45 NF =0.977 IKF=1.25 ISE=7E-15
+NE =1.35 BR =50 VAR=50 NR =.986 IKR=0.15 ISC=0.9E-14 NC =1.08 RB =0.16
+RE =0.195 RC =0.185 CJE=104E-12 TF =0.7E-9 CJC=30.5-12 TR =3E-9 VJC=0.395
+MJC=0.415
*
*ZETEX  BCW68F Spice model    Last revision  10/1/90
*
.MODEL BCW68F PNP IS =3.2E-14 BF =170 VAF=45 NF =0.977 IKF=1.25 ISE=7E-15
+NE =1.35 BR =50 VAR=50 NR =.986 IKR=0.15 ISC=0.9E-14 NC =1.08 RB =0.16
+RE =0.195 RC =0.185 CJE=104E-12 TF =0.7E-9 CJC=30.5-12 TR =3E-9 VJC=0.395
+MJC=0.415
*
*ZETEX  BCW69 Spice model    Last revision  4/90
*
.MODEL BCW69 PNP IS =1.149E-14 ISE=5E-14 NF =.9872 NE =1.4 BF =330 BR =13
+IKF=.1 IKR=.012 ISC=1.43E-14 NC =1.1 NR =.996 RB =.2 RE =.4 RC =.95 VAR=8.15
+VAF=84.56 CJE=16E-12 TF =.493E-9 CJC=10.5E-12 TR =73.55E-9 MJC=.415 VJC=.565
*
*ZETEX  BCW89 Spice model    Last revision  4/90
*
.MODEL BCW89 PNP IS =1.149E-14 ISE=5E-14 NF =.9872 NE =1.4 BF =330 BR =13
+IKF=.1 IKR=.012 ISC=1.43E-14 NC =1.1 NR =.996 RB =.2 RE =.4 RC =.95 VAR=8.15
+VAF=84.56 CJE=16E-12 TF =.493E-9 CJC=10.5E-12 TR =73.55E-9 MJC=.415 VJC=.565
*
*ZETEX  BCX71G Spice model    Last revision  4/90
*
.MODEL BCX71G PNP IS =1.149E-14 ISE=5E-14 NF =.9872 NE =1.4 BF =330 BR =13
+IKF=.1 IKR=.012 ISC=1.43E-14 NC =1.1 NR =.996 RB =.2 RE =.4 RC =.95 VAR=8.15
+VAF=84.56 CJE=16E-12 TF =.493E-9 CJC=10.5E-12 TR =73.55E-9 MJC=.415 VJC=.565
*
*   ZETEX   FCX558   Spice model   Last revision 20/3/92
*
.MODEL FCX558 PNP IS=7.8443E-14 NF=0.99774 BF=200 IKF=0.096 VAF=349
+ISE=3.35E-14 NE=1.689 NR=0.99784 BR=3.4 IKR=0.15 VAR=82 
+ISC=9.42E-12 NC=1.05 RB=0.133 RE=0.5725 RC=0.748 CJC=17.6E-12  
+MJC=0.5932 VJC=0.9135 CJE=110E-12 TF=1.13E-9 TR=75E-6
*
*ZETEX   FCX749 Spice model       Last revision  17/7/90
*
.MODEL FCX749 PNP IS =2.6E-13 BF =210 VAF=27 IKF=7 ISE=1.2E-13 NE =1.43 BR =70
+VAR=14 IKR=.6 ISC=12.04E-13 NC =1.4474 NF =.999 NR =.982 RB =.3 RE =.065
+RC =.04 CJE=410E-12 TF =.65E-9 CJC=140E-12 TR =12E-9 MJC=.35 VJC=.305
*
*ZETEX  FMMT549 Spice model   Last revision 11/10/94
*
.MODEL FMMT549 PNP IS =1.3E-13 BF =200 IKF=1.8 VAF=104
+              ISE=6E-14 NE =1.45 BR =50 IKR=0.2 VAR=8 
+              ISC=3.5E-14 NC =1.23 RB =0.7 RE =0.063 RC =0.122 
+              CJC=55E-12 MJC=0.3541 VJC=0.1928 CJE=120.9E-12 
+              MJE=.4685 VJE=1.041 TF =0.51E-9 TR =3.6E-9
*
*ZETEX  FMMT589 Spice model   Last revision 11/10/94
*
.MODEL FMMT589 PNP IS =1.3E-13 BF =200 IKF=1.8 VAF=104
+              ISE=6E-14 NE =1.45 BR =50 IKR=0.2 VAR=8 
+              ISC=3.5E-14 NC =1.23 RB =0.7 RE =0.063 RC =0.122 
+              CJC=55E-12 MJC=0.3541 VJC=0.1928 CJE=120.9E-12 
+              MJE=.4685 VJE=1.041 TF =0.51E-9 TR =3.6E-9
*
*ZETEX  FMMT591A Spice model   Last revision 21/5/93
*
.MODEL FMMT591A PNP IS =3.0572E-13 NF =1.0103 BF =450 IKF=0.93 VAF=20
+               ISE=1.5E-14 NE =1.52 NR =1.007 BR =160 IKR=0.08 VAR=33 
+               ISC=3.8736E-14 NC =1.0893 RB =0.112 RE =0.144 RC =0.156 
+               CJC=42E-12 MJC=0.4449 VJC=0.3131 CJE=91E-12 
+               TF =0.51E-9 TR =3.6E-9
*
*ZETEX  FMMT597 Linear Operation Spice Model   Last revision 4/7/91
*
.MODEL FMMT597 PNP IS =8.79E-14 NF =1.0032 BF =190 IKF=.145 VAF=647
+ISE=2.77E-14 NE =1.525 NR =1.03 ISC=5E-13 NC =1.3 VAR=80 BR =2.6 IKR=.25
+RB =.2 RE =.5 RC =1.0 CJC=20.8E-12 MJC=.505 VJC=.8 CJE=106E-12 TF =1.64E-9
+TR =1.1E-6
*
*ZETEX  FMMT597Q Quasi-Sat Spice model    Last revision 4/7/91
*
.SUBCKT FMMT597Q 7 4 3
*                C B E
FIB 6 7 VIB 10
Q1 5 2 3 T597
VIB 2 4
R1 5 6 5.0
R2 5 7 75
D1 7 6 D597
*
.MODEL T597 PNP IS=8.79E-14 NF=1.0032 BF=180 IKF=1.5 VAF=647
+ISE=2.77E-14 NE=1.525 NR=1.03 ISC=5E-13 NC=1.3 VAR=80 BR=2.6
+IKR=.25 RB=.2 RE=.5 RC=0 CJC=20.8E-12 MJC=.505 VJC=.8
+CJE=106E-12 TF=1.4E-9 TR=1.1E-6
*
.MODEL D597 D IS=1.0E-12 N=.01
.ENDS FMMT597Q
*
*ZETEX  FMMT717  Spice model   Last revision 25/3/94
*
.MODEL FMMT717 PNP IS =5.5E-13  BF =500 IKF =3 VAF =14.93 
+              ISE=1.75E-13 NE =1.5 NR =1.00 BR =280 IKR=0.3 
+              VAR=5.64 ISC=6.01E-13 NC =1.34 RB =0.3 RE =0.03
+              RC =0.025 CJC=116.9E-12 MJC=0.3456 VJC=0.4576 
+              CJE=223.6E-12 MJE=0.4803 VJE=0.9091 TF =1.2E-9 
+              TR =2E-9
*
*ZETEX  FMMT718  Spice model   Last revision 15/12/93
*
.MODEL FMMT718 PNP IS =6.8E-13  BF =480 IKF =2 VAF =23 
+              ISE=0.8E-13 NE =1.5567 NR =1.00 BR =70 IKR=0.4 
+              VAR=7 ISC=7.5E-14 NC =1.19 RB =0.085 RE =0.04
+              RC =0.045 CJC=70.02E-12 MJC=0.4685 VJC=0.7714 
+              CJE=203.6E-12 MJE=0.5029 VJE=0.9403 TF =0.71E-9 
+              TR =23.7E-9
*
*ZETEX  FMMT720  Spice model   Last revision 15/12/93
*
.MODEL FMMT720 PNP IS =6.261E-13  BF =500 IKF =1.4 VAF =28.4 
+              ISE=1.057E-13 NE =1.4923 NR =1.00 BR =42 IKR=0.65 
+              VAR=10.21 ISC=6E-14 NC =1.124 RB =0.078 RE =0.077
+              RC =0.04 CJC=59.54E-12 MJC=0.5058 VJC=0.8427 
+              CJE=201.4E-12 MJE=0.5244 VJE=1.021 TF =0.68E-9 
+              TR =23.7E-9
*
*ZETEX  FMMT722  Spice model   Last revision 15/12/93
*
.MODEL FMMT722 PNP IS =6.348E-13  BF =450 IKF =1.25 VAF =30.24 
+              ISE=1.375E-13 NE =1.5 NR =1.00 BR =25 IKR=0.8 
+              VAR=12.6 ISC=1E-13 NC =1.093 RB =0.081 RE =0.09
+              RC =0.1 CJC=49.87E-12 MJC=0.494 VJC=0.7653 
+              CJE=199E-12 MJE=0.5045 VJE=0.9617 TF =0.57E-9 
+              TR =57E-9
*
*ZETEX  FMMT723  Spice model   Last revision 15/12/93
*
.MODEL FMMT723 PNP IS =5.5E-13  BF =440 IKF =1 VAF =50.88 
+              ISE=1.554E-13 NE =1.477 NR =1.03 BR =30 IKR=0.7 
+              VAR=13.79 ISC=1.3E-12 NC =1.198 RB =1.5 RE =0.02
+              RC =0.14 CJC=45.74E-12 MJC=0.4889 VJC=0.711 
+              CJE=204.3E-12 MJE=0.5105 VJE=0.9711 TF =0.63E-9 
+              TR =95E-9
*
*ZETEX  FMMTA70 Spice model    Last revision  4/90
*
.MODEL FMMTA70 PNP IS =1.149E-14 ISE=5E-14 NF =.9872 NE =1.4 BF =330 BR =13
+IKF=.1 IKR=.012 ISC=1.43E-14 NC =1.1 NR =.996 RB =.2 RE =.4 RC =.95 VAR=8.15
+VAF=84.56 CJE=16E-12 TF =.493E-9 CJC=10.5E-12 TR =73.55E-9 MJC=.415 VJC=.565
*
*ZETEX  FZT705 Darlington Spice Subcircuit   Last revision  9/8/90
*
.SUBCKT FZT705 1 2 3
*              C B E
Q1 1 2 4 SUB704
Q2 1 4 3 SUB704 4
*
.MODEL SUB704 PNP IS =3.35584E-14 BF =85 VAF=212 NF =1.002 IKF=.817
+ISE=3.6E-13 NE =4.1 BR =24 VAR=6 NR =.999 IKR=.114 ISC=1.406E-13 NC =1.13
+RB =1.1 RE =.4 RC =.0339 CJE=100E-12 CJC=37E-12 VJC=1.045 MJC=.595
.ENDS FZT705
*
*ZETEX   FZT749 Spice model       Last revision  17/7/90
*
.MODEL FZT749 PNP IS =2.6E-13 BF =210 VAF=27 IKF=7 ISE=1.2E-13 NE =1.43 BR =70
+VAR=14 IKR=.6 ISC=12.04E-13 NC =1.4474 NF =.999 NR =.982 RB =.3 RE =.065
+RC =.04 CJE=410E-12 TF =.65E-9 CJC=140E-12 TR =12E-9 MJC=.35 VJC=.305
*
*ZETEX  FZT751 Spice model   Last revision  23/1/91
*
.MODEL FZT751 PNP IS =2.715E-13 BF =170 VAF=70 NF =1.004 IKF=2.75 ISE=1E-13
+NE =1.535 BR =23 VAR=40 NR =1.005 IKR=.55 ISC=5.15E-14 NC =1.13 RB =.07
+RE =.065 RC =.085 CJE=360E-12 TF =.94E-9 CJC=90E-12 TR =60E-9 VJC=.705
+MJC=.46
*
*ZETEX  FZT757 Spice model   Last revision  30/11/90
*
.MODEL FZT757 PNP IS =1.305E-13 NF =1.0004 BF =97 IKF=.25 VAF=1060 ISE=7.5E-14
+NE =1.5 NR =1 ISC=2E-13 NC =1.8 VAR=50 BR =3.2 IKR=.5 RB =.1 RE =.19 RC =.2
+CJC=48E-12 MJC=.56 VJC=.775 CJE=445E-12 TF =3.03E-9 TR =1500E-9
*
*   ZETEX   FZT758   Spice model   Last revision 15/4/92
*
.MODEL FZT758  PNP IS=2.72E-13 NF=1.00342 BF=175 IKF=0.205 VAF=450
+ISE=8.24E-14 NE=1.48 NR=1.00392 BR=5.5 IKR=0.6 VAR=78 ISC=1E-14
+NC=1.03 RB=0.1 RE=0.278 RC=0.333 CJC=40E-12 MJC=0.545 VJC=0.715 
+CJE=365E-12 TF=1.3E-9 TR=309E-9
*
*
*   ZETEX   FZT788A   Spice model   Last revision 3/6/92
*
.MODEL FZT788A PNP IS=1.2016E-12 NF=1.0186 BF=490 IKF=3.8 VAF=10.8
+ISE=2.2E-13 NE=1.57 NR=1.011 BR=190 IKR=0.35 VAR=13.6 
+ISC=2.38E-12 NC=1.693 RB=0.050 RE=0.028 RC=0.042 CJC=156E-12  
+MJC=0.4266 VJC=0.9718 CJE=335E-12 TF=0.78E-9 TR=4.6E-9
*
*
*ZETEX   FZT788B  Spice model   Last revision 2/1/92
*
.MODEL FZT788B PNP IS=1.252E-12 NF=1.0119 BF=770 IKF=2.6 VAF=11
+ISE=1.3185E-13 NE=1.4832 NR=1.0047 BR=350 IKR=0.32 VAR=10.5
+ISC=5.2648E-14 NC=1.186 RB=0.053 RE=0.031 RC=0.044 CJC=137E-12
+MJC=0.34 VJC=0.275 CJE=280E-12 TF=0.75E-9 TR=2.3E-9
*
*
*ZETEX   FZT789A  Spice model   Last revision 3/1/92
*
.MODEL FZT789A PNP IS=8.5083E-13 NF=1.007 BF=540 IKF=3.4 VAF=15.5
+ISE=1.60716E-13 NE=1.5059 NR=1.0025 BR=180 IKR=0.3 VAR=9 ISC=7.382E-14
+NC=1.2275 RB=0.05 RE=0.32 RC=0.052 CJC=140E-12 MJC=0.335 VJC=0.26
+CJE=300E-12 TF=0.73E-9 TR=4.2E-9
*
*
*ZETEX   FZT790A  Spice model   Last revision 3/1/92
*
.MODEL FZT790A PNP IS=1.09684E-12 NF=1.0102 BF=650 IKF=1.7 VAF=23.5
+ISE=9.88593E-14 NE=1.47256 NR=1.00391 BR=270 IKR=0.2 VAR=30
+ISC=5.4933E-14 NC=1.07427 RB=0.055 RE=0.049 RC=0.078 CJC=96E-12
+MJC=0.495 VJC=0.67 CJE=275E-12 TF=0.75E-9 TR=10.8E-9
*Note, The model may be inaccurate for collector currents above 1.5A.
*
*
*ZETEX   FZT792A  Spice model   Last revision 7/1/92
*
.MODEL FZT792A PNP IS=5.98255E-13 NF=1.0022 BF=525 IKF=1.25 VAF=30
+ISE=1.45E-13 NE=1.54 NR=0.995 BR=75 IKR=0.4 VAR=34 ISC=1.58913E-13
+NC=1.03943 RB=0.06 RE=0.059 RC=0.08 CJC=90E-12 MJC=0.5 VJC=0.71
+CJE=286E-12 TF=0.75E-9 TR=93.75E-9
*Note, The model may be inaccurate for collector currents above 1.2A.
*
*ZETEX  ZTX212 Spice model    Last revision  4/90
*
.MODEL ZTX212 PNP IS =1.149E-14 ISE=5E-14 NF =.9872 NE =1.4 BF =330 BR =13
+IKF=.1 IKR=.012 ISC=1.43E-14 NC =1.1 NR =.996 RB =.2 RE =.4 RC =.95 VAR=8.15
+VAF=84.56 CJE=16E-12 TF =.493E-9 CJC=10.5E-12 TR =73.55E-9 MJC=.415 VJC=.565
*
*ZETEX  ZTX212A Spice model    Last revision  4/90
*
.MODEL ZTX212A PNP IS =1.149E-14 ISE=5E-14 NF =.9872 NE =1.4 BF =330 BR =13
+IKF=.1 IKR=.012 ISC=1.43E-14 NC =1.1 NR =.996 RB =.2 RE =.4 RC =.95 VAR=8.15
+VAF=84.56 CJE=16E-12 TF =.493E-9 CJC=10.5E-12 TR =73.55E-9 MJC=.415 VJC=.565
*
*ZETEX  ZTX213 Spice model    Last revision  4/90
*
.MODEL ZTX213 PNP IS =1.149E-14 ISE=5E-14 NF =.9872 NE =1.4 BF =330 BR =13
+IKF=.1 IKR=.012 ISC=1.43E-14 NC =1.1 NR =.996 RB =.2 RE =.4 RC =.95 VAR=8.15
+VAF=84.56 CJE=16E-12 TF =.493E-9 CJC=10.5E-12 TR =73.55E-9 MJC=.415 VJC=.565
*
*ZETEX  ZTX213A Spice model    Last revision  4/90
*
.MODEL ZTX213A PNP IS =1.149E-14 ISE=5E-14 NF =.9872 NE =1.4 BF =330 BR =13
+IKF=.1 IKR=.012 ISC=1.43E-14 NC =1.1 NR =.996 RB =.2 RE =.4 RC =.95 VAR=8.15
+VAF=84.56 CJE=16E-12 TF =.493E-9 CJC=10.5E-12 TR =73.55E-9 MJC=.415 VJC=.565
*
*ZETEX  ZTX214 Spice model    Last revision  4/90
*
.MODEL ZTX214 PNP IS =1.149E-14 ISE=5E-14 NF =.9872 NE =1.4 BF =330 BR =13
+IKF=.1 IKR=.012 ISC=1.43E-14 NC =1.1 NR =.996 RB =.2 RE =.4 RC =.95 VAR=8.15
+VAF=84.56 CJE=16E-12 TF =.493E-9 CJC=10.5E-12 TR =73.55E-9 MJC=.415 VJC=.565
*
*ZETEX  ZTX214A Spice model    Last revision  4/90
*
.MODEL ZTX214A PNP IS =1.149E-14 ISE=5E-14 NF =.9872 NE =1.4 BF =330 BR =13
+IKF=.1 IKR=.012 ISC=1.43E-14 NC =1.1 NR =.996 RB =.2 RE =.4 RC =.95 VAR=8.15
+VAF=84.56 CJE=16E-12 TF =.493E-9 CJC=10.5E-12 TR =73.55E-9 MJC=.415 VJC=.565
*ZETEX  ZTX549 Spice model   Last revision 11/10/94
*
.MODEL ZTX549 PNP IS =1.3E-13 BF =200 IKF=1.8 VAF=104
+              ISE=6E-14 NE =1.45 BR =50 IKR=0.2 VAR=8 
+              ISC=3.5E-14 NC =1.23 RB =0.7 RE =0.063 RC =0.122 
+              CJC=55E-12 MJC=0.3541 VJC=0.1928 CJE=120.9E-12 
+              MJE=.4685 VJE=1.041 TF =0.51E-9 TR =3.6E-9
*
*ZETEX  ZTX550 Spice model    Last revision  10/1/90
*
.MODEL ZTX550 PNP IS =3.2E-14 BF =170 VAF=45 NF =0.977 IKF=1.25 ISE=7E-15
+NE =1.35 BR =50 VAR=50 NR =.986 IKR=0.15 ISC=0.9E-14 NC =1.08 RB =0.16
+RE =0.195 RC =0.185 CJE=104E-12 TF =0.7E-9 CJC=30.5-12 TR =3E-9 VJC=0.395
+MJC=0.415
*
*   ZETEX   ZTX558   Spice model   Last revision 20/3/92
*
.MODEL ZTX558 PNP IS=7.8443E-14 NF=0.99774 BF=200 IKF=0.096 VAF=349
+ISE=3.35E-14 NE=1.689 NR=0.99784 BR=3.4 IKR=0.15 VAR=82 
+ISC=9.42E-12 NC=1.05 RB=0.133 RE=0.5725 RC=0.748 CJC=17.6E-12  
+MJC=0.5932 VJC=0.9135 CJE=110E-12 TF=1.13E-9 TR=75E-6
*
*ZETEX  ZTX704 Darlington Spice Subcircuit   Last revision  9/8/90
*
.SUBCKT ZTX704 1 2 3
*              C B E
Q1 1 2 4 SUB704
Q2 1 4 3 SUB704 4
*
.MODEL SUB704 PNP IS =3.35584E-14 BF =85 VAF=212 NF =1.002 IKF=.817
+ISE=3.6E-13 NE =4.1 BR =24 VAR=6 NR =.999 IKR=.114 ISC=1.406E-13 NC =1.13
+RB =1.1 RE =.4 RC =.0339 CJE=100E-12 CJC=37E-12 VJC=1.045 MJC=.595
.ENDS ZTX704
*
*ZETEX  ZTX705 Darlington Spice Subcircuit   Last revision  9/8/90
*
.SUBCKT ZTX705 1 2 3
*              C B E
Q1 1 2 4 SUB704
Q2 1 4 3 SUB704 4
*
.MODEL SUB704 PNP IS =3.35584E-14 BF =85 VAF=212 NF =1.002 IKF=.817
+ISE=3.6E-13 NE =4.1 BR =24 VAR=6 NR =.999 IKR=.114 ISC=1.406E-13 NC =1.13
+RB =1.1 RE =.4 RC =.0339 CJE=100E-12 CJC=37E-12 VJC=1.045 MJC=.595
.ENDS ZTX705
*
*
*ZETEX  ZTX718  Spice model   Last revision 15/12/93
*
.MODEL ZTX718 PNP IS =6.8E-13  BF =480 IKF =2 VAF =23 
+              ISE=0.8E-13 NE =1.5567 NR =1.00 BR =70 IKR=0.4 
+              VAR=7 ISC=7.5E-14 NC =1.19 RB =0.085 RE =0.04
+              RC =0.045 CJC=70.02E-12 MJC=0.4685 VJC=0.7714 
+              CJE=203.6E-12 MJE=0.5029 VJE=0.9403 TF =0.71E-9 
+              TR =23.7E-9
*
*
*ZETEX   ZTX749 Spice model       Last revision  17/7/90
*
.MODEL ZTX749 PNP IS =2.6E-13 BF =210 VAF=27 IKF=7 ISE=1.2E-13 NE =1.43 BR =70
+VAR=14 IKR=.6 ISC=12.04E-13 NC =1.4474 NF =.999 NR =.982 RB =.3 RE =.065
+RC =.04 CJE=410E-12 TF =.65E-9 CJC=140E-12 TR =12E-9 MJC=.35 VJC=.305
*
*ZETEX  ZTX750 Spice model   Last revision  23/1/91
*
.MODEL ZTX750 PNP IS =2.715E-13 BF =170 VAF=70 NF =1.004 IKF=2.75 ISE=1E-13
+NE =1.535 BR =23 VAR=40 NR =1.005 IKR=.55 ISC=5.15E-14 NC =1.13 RB =.07
+RE =.065 RC =.085 CJE=360E-12 TF =.94E-9 CJC=90E-12 TR =60E-9 VJC=.705
+MJC=.46
*
*ZETEX  ZTX751 Spice model   Last revision  23/1/91
*
.MODEL ZTX751 PNP IS =2.715E-13 BF =170 VAF=70 NF =1.004 IKF=2.75 ISE=1E-13
+NE =1.535 BR =23 VAR=40 NR =1.005 IKR=.55 ISC=5.15E-14 NC =1.13 RB =.07
+RE =.065 RC =.085 CJE=360E-12 TF =.94E-9 CJC=90E-12 TR =60E-9 VJC=.705
+MJC=.46
*
*ZETEX  ZTX753 Spice model   Last revision 24/5/93
*
.MODEL ZTX753 PNP IS =3.2007E-13 NF =1.0041 BF =200 IKF=1.6 VAF=76
+             ISE=8E-14 NE =1.57 NR =1.0008 BR =33 IKR=0.45 VAR=51 
+             ISC=6E-14 NC =1.079 RB =0.087 RE =0.08 RC =0.07 
+             CJC=80E-12 MJC=0.4896 VJC=0.7676 CJE=350E-12 
+             TF =0.86E-9 TR =24E-9
*
*ZETEX  ZTX757 Spice model   Last revision  30/11/90
*
.MODEL ZTX757 PNP IS =1.305E-13 NF =1.0004 BF =97 IKF=.25 VAF=1060 ISE=7.5E-14
+NE =1.5 NR =1 ISC=2E-13 NC =1.8 VAR=50 BR =3.2 IKR=.5 RB =.1 RE =.19 RC =.2
+CJC=48E-12 MJC=.56 VJC=.775 CJE=445E-12 TF =3.03E-9 TR =1500E-9
*
*   ZETEX   ZTX758   Spice model   Last revision 15/4/92
*
.MODEL ZTX758  PNP IS=2.72E-13 NF=1.00342 BF=175 IKF=0.205 VAF=450
+ISE=8.24E-14 NE=1.48 NR=1.00392 BR=5.5 IKR=0.6 VAR=78 ISC=1E-14
+NC=1.03 RB=0.1 RE=0.278 RC=0.333 CJC=40E-12 MJC=0.545 VJC=0.715 
+CJE=365E-12 TF=1.3E-9 TR=309E-9
*
*
*   ZETEX   ZTX788A   Spice model   Last revision 3/6/92
*
.MODEL ZTX788A PNP IS=1.2016E-12 NF=1.0186 BF=490 IKF=3.8 VAF=10.8
+ISE=2.2E-13 NE=1.57 NR=1.011 BR=190 IKR=0.35 VAR=13.6 
+ISC=2.38E-12 NC=1.693 RB=0.050 RE=0.028 RC=0.042 CJC=156E-12  
+MJC=0.4266 VJC=0.9718 CJE=335E-12 TF=0.78E-9 TR=4.6E-9
*
*
*ZETEX   ZTX788B  Spice model   Last revision 2/1/92
*
.MODEL ZTX788B PNP IS=1.252E-12 NF=1.0119 BF=770 IKF=2.6 VAF=11
+ISE=1.3185E-13 NE=1.4832 NR=1.0047 BR=350 IKR=0.32 VAR=10.5
+ISC=5.2648E-14 NC=1.186 RB=0.053 RE=0.031 RC=0.044 CJC=137E-12
+MJC=0.34 VJC=0.275 CJE=280E-12 TF=0.75E-9 TR=2.3E-9
*
*
*ZETEX   ZTX789A  Spice model   Last revision 3/1/92
*
.MODEL ZTX789A PNP IS=8.5083E-13 NF=1.007 BF=540 IKF=3.4 VAF=15.5
+ISE=1.60716E-13 NE=1.5059 NR=1.0025 BR=180 IKR=0.3 VAR=9 ISC=7.382E-14
+NC=1.2275 RB=0.05 RE=0.32 RC=0.052 CJC=140E-12 MJC=0.335 VJC=0.26
+CJE=300E-12 TF=0.73E-9 TR=4.2E-9
*
*
*ZETEX   ZTX790A  Spice model   Last revision 3/1/92
*
.MODEL ZTX790A PNP IS=1.09684E-12 NF=1.0102 BF=650 IKF=1.7 VAF=23.5
+ISE=9.88593E-14 NE=1.47256 NR=1.00391 BR=270 IKR=0.2 VAR=30
+ISC=5.4933E-14 NC=1.07427 RB=0.055 RE=0.049 RC=0.078 CJC=96E-12
+MJC=0.495 VJC=0.67 CJE=275E-12 TF=0.75E-9 TR=10.8E-9
*Note, The model may be inaccurate for collector currents above 1.5A.
*
*
*ZETEX   ZTX792A  Spice model   Last revision 7/1/92
*
.MODEL ZTX792A PNP IS=5.98255E-13 NF=1.0022 BF=525 IKF=1.25 VAF=30
+ISE=1.45E-13 NE=1.54 NR=0.995 BR=75 IKR=0.4 VAR=34 ISC=1.58913E-13
+NC=1.03943 RB=0.06 RE=0.059 RC=0.08 CJC=90E-12 MJC=0.5 VJC=0.71
+CJE=286E-12 TF=0.75E-9 TR=93.75E-9
*Note, The model may be inaccurate for collector currents above 1.2A.
*
*
*ZETEX   ZTX795A  Spice model   Last revision 8/1/92
*
.MODEL ZTX795A PNP IS=7.2932E-13 NF=1.003 BF=595 IKF=0.4 VAF=45
+ISE=8.77307E-14 NE=1.44784 NR=0.996 BR=65 IKR=0.42 VAR=41
+ISC=1.52968E-13 NC=1.01957 RB=0.056 RE=0.093 RC=0.143 CJC=65.5E-12
+MJC=0.52 VJC=0.74 CJE=275E-12 TF=0.83E-9 TR=307E-9
*Note, Model may be inaccurate for collector currents above 0.45A.
*
*
*ZETEX   ZTX796A  Spice model   Last revision 9/1/92
*
.MODEL ZTX796A PNP IS=7.01378E-13 NF=1.00509 BF=500 IKF=0.43
+VAF=450 ISE=1.13932E-13 NE=1.47073 NR=1.025 BR=6.5 IKR=0.37 VAR=48
+ISC=4.10626E-13 NC=1.00707 RB=0.07 RE=0.2 RC=0.139 CJC=52E-12
+MJC=0.515 VJC=0.65 CJE=280E-12 TF=0.83E-9 TR=4500E-9
*Note, Model may be inaccurate for collector currents above 0.2A.
*
*
*   ZETEX   ZTX948   Spice model   Last revision 26/5/92
*
.MODEL ZTX948  PNP IS=1.5554E-12 NF=1.013 BF=208 IKF=14.7 VAF=22.4
+ISE=1.48E-13 NE=1.485 NR=1.004 BR=140 IKR=1.34 VAR=15.4 
+ISC=1.3946E-11 NC=1.702 RB=0.020 RE=0.0177 RC=0.015 CJC=440E-12  
+MJC=0.3604 VJC=0.685 CJE=1.23E-9 TF=1.38E-9 TR=4.8E-9
*
*   ZETEX   ZTX949   Spice model   Last revision 27/5/92
*
.MODEL ZTX949  PNP IS=1.5111E-12 NF=1.0127 BF=208 IKF=12.4 VAF=32.7
+ISE=1.335E-13 NE=1.42 NR=1.009 BR=145 IKR=1.25 VAR=26.5 
+ISC=1.392E-13 NC=1.14 RB=0.026 RE=0.019 RC=0.0175 CJC=362E-12  
+MJC=0.338 VJC=0.4294 CJE=1.17E-9 TF=1.01E-9 TR=7.5E-9
*
*
*   ZETEX   ZTX951   Spice model   Last revision 27/5/92
*
.MODEL ZTX951  PNP IS=1.3766E-12 NF=1.013 BF=187 IKF=5.0 VAF=66.3
+ISE=1.4E-13 NE=1.41 NR=1.0099 BR=56 IKR=0.9 VAR=33 ISC=1.7E-12
+NC=1.4 RB=0.029 RE=0.020 RC=0.0255 CJC=287E-12 MJC=0.4522 
+VJC=0.4956 CJE=1.15E-9 TF=0.83E-9 TR=20E-9
*
*
*   ZETEX   ZTX953   Spice model   Last revision 27/5/92
*
.MODEL ZTX953  PNP IS=1.6649E-12 NF=1.0139 BF=220 IKF=3.4 VAF=55
+ISE=6.2E-13 NE=1.62 NR=1.0107 BR=40 IKR=0.95 VAR=43 ISC=3E-12
+NC=1.4 RB=0.032 RE=0.0295 RC=0.034 CJC=265E-12 MJC=0.5286 VJC=0.76
+CJE=1.1E-9 TF=0.795E-9 TR=37.5E-9
*
*
*   ZETEX   ZTX955   Spice model   Last revision 28/5/92
*
.MODEL ZTX955  PNP IS=1.1029E-12 NF=1.0073 BF=195 IKF=4.2 VAF=70.0
+ISE=2.7169E-13 NE=1.4601 NR=1.0045 BR=30 IKR=0.55 VAR=54 ISC=3E-12
+NC=1.4 RB=0.033 RE=0.0325 RC=0.0525 CJC=226E-12 MJC=0.5325 
+VJC=0.7572 CJE=1.1E-9 TF=0.895E-9 TR=67.8E-9
*
*
*   ZETEX   ZTX956   Spice model   Last revision 28/5/92
*
.MODEL ZTX956  PNP IS=1.3713E-12 NF=1.0094 BF=215 IKF=2.5 VAF=86.0
+ISE=6.545E-13 NE=1.5845 NR=1.0075 BR=18 IKR=0.9 VAR=59 ISC=6E-12
+NC=1.6 RB=0.035 RE=0.0455 RC=0.0745 CJC=191E-12 MJC=0.5535
+VJC=0.8577 CJE=1.08E-9 TF=0.895E-9 TR=118E-9
*
*
*   ZETEX   ZTX957   Spice model   Last revision 2/6/92
*
.MODEL ZTX957  PNP IS=1.3152E-12 NF=1.0106 BF=215 IKF=1.05 VAF=325
+ISE=5.5E-13 NE=1.524 NR=1.0104 BR=8 IKR=0.63 VAR=110 ISC=6E-12
+NC=1.8 RB=0.037 RE=0.098 RC=0.177 CJC=140E-12 MJC=0.5432 
+VJC=0.7592 CJE=1.1E-9 TF=1.23E-9 TR=590E-9
*
*
*   ZETEX   ZTX958   Spice model   Last revision 2/6/92
*
.MODEL ZTX958 PNP IS=1.6073E-12 NF=1.013 BF=215 IKF=0.7 VAF=326
+ISE=1.75E-13 NE=1.46 NR=1.05 BR=3.5 IKR=0.85 VAR=78 ISC=5E-11
+NC=1.7 RB=0.05 RE=0.126 RC=0.123 CJC=113E-12 MJC=0.5069 VJC=0.5949
+CJE=1.05E-9 TF=1.26E-9 TR=1.28E-6
*
*
*ZETEX  ZTX212 Spice model    Last revision  4/90
*
.MODEL ZTX212 PNP IS =1.149E-14 ISE=5E-14 NF =.9872 NE =1.4 BF =330 BR =13
+IKF=.1 IKR=.012 ISC=1.43E-14 NC =1.1 NR =.996 RB =.2 RE =.4 RC =.95 VAR=8.15
+VAF=84.56 CJE=16E-12 TF =.493E-9 CJC=10.5E-12 TR =73.55E-9 MJC=.415 VJC=.565
*
*ZETEX  ZTX212A Spice model    Last revision  4/90
*
.MODEL ZTX212A PNP IS =1.149E-14 ISE=5E-14 NF =.9872 NE =1.4 BF =330 BR =13
+IKF=.1 IKR=.012 ISC=1.43E-14 NC =1.1 NR =.996 RB =.2 RE =.4 RC =.95 VAR=8.15
+VAF=84.56 CJE=16E-12 TF =.493E-9 CJC=10.5E-12 TR =73.55E-9 MJC=.415 VJC=.565
*
*ZETEX  ZTX213 Spice model    Last revision  4/90
*
.MODEL ZTX213 PNP IS =1.149E-14 ISE=5E-14 NF =.9872 NE =1.4 BF =330 BR =13
+IKF=.1 IKR=.012 ISC=1.43E-14 NC =1.1 NR =.996 RB =.2 RE =.4 RC =.95 VAR=8.15
+VAF=84.56 CJE=16E-12 TF =.493E-9 CJC=10.5E-12 TR =73.55E-9 MJC=.415 VJC=.565
*
*ZETEX  ZTX213A Spice model    Last revision  4/90
*
.MODEL ZTX213A PNP IS =1.149E-14 ISE=5E-14 NF =.9872 NE =1.4 BF =330 BR =13
+IKF=.1 IKR=.012 ISC=1.43E-14 NC =1.1 NR =.996 RB =.2 RE =.4 RC =.95 VAR=8.15
+VAF=84.56 CJE=16E-12 TF =.493E-9 CJC=10.5E-12 TR =73.55E-9 MJC=.415 VJC=.565
*
*ZETEX  ZTX214 Spice model    Last revision  4/90
*
.MODEL ZTX214 PNP IS =1.149E-14 ISE=5E-14 NF =.9872 NE =1.4 BF =330 BR =13
+IKF=.1 IKR=.012 ISC=1.43E-14 NC =1.1 NR =.996 RB =.2 RE =.4 RC =.95 VAR=8.15
+VAF=84.56 CJE=16E-12 TF =.493E-9 CJC=10.5E-12 TR =73.55E-9 MJC=.415 VJC=.565
*
*ZETEX  ZTX214A Spice model    Last revision  4/90
*
.MODEL ZTX214A PNP IS =1.149E-14 ISE=5E-14 NF =.9872 NE =1.4 BF =330 BR =13
+IKF=.1 IKR=.012 ISC=1.43E-14 NC =1.1 NR =.996 RB =.2 RE =.4 RC =.95 VAR=8.15
+VAF=84.56 CJE=16E-12 TF =.493E-9 CJC=10.5E-12 TR =73.55E-9 MJC=.415 VJC=.565

*
*   ZETEX   ZTX968   Spice model   Last revision 25/5/92
*
.MODEL ZTX968  PNP IS=3.58E-12 NF=1.015 BF=500 IKF=11 VAF=11.4
+ISE=1.576E-13 NE=1.42 NR=1.01 BR=245 IKR=1.4 VAR=8.4 ISC=1.48E-11
+NC=1.637 RB=0.024 RE=0.0164 RC=0.0235 CJC=438E-12 MJC=0.361 
+VJC=0.673 CJE=1.05E-9 TF=1.38E-9 TR=2.3E-9
*
*
*
*                          (C)  1995 ZETEX PLC
*
*   The copyright in these models  and  the designs embodied belong
*   to Zetex PLC ("Zetex").  They  are  supplied  free of charge by
*   Zetex for the purpose of research and design and may be used or
*   copied intact  (including this notice)  for  that purpose only.
*   All other rights are reserved. The models are believed accurate