
.MODEL BA157GP D (
+   IS =  1.366e-08
+   RS =  0.09599
+   CJO =  3.067e-11
+   VJ =  0.3905
+   TT =  3.699e-07
+   M =  0.3408
+   BV =  480
+   N =  2
+   EG =  1.11
+   XTI =  3
+   KF =  0
+   AF =  1
+   FC =  0.5
+   IBV =  0.0001
+   TNOM =  27
)

.MODEL BA158GP D (
+   IS =  1.366e-08
+   RS =  0.09599
+   CJO =  3.067e-11
+   VJ =  0.3905
+   TT =  3.699e-07
+   M =  0.3409
+   BV =  720
+   N =  2
+   EG =  1.11
+   XTI =  3
+   KF =  0
+   AF =  1
+   FC =  0.5
+   IBV =  0.0001
+   TNOM =  27
)

.MODEL BA159GP D (
+   IS =  1.366e-08
+   RS =  0.09599
+   CJO =  3.067e-11
+   VJ =  0.3905
+   TT =  3.699e-07
+   M =  0.3409
+   BV =  1200
+   N =  2
+   EG =  1.11
+   XTI =  3
+   KF =  0
+   AF =  1
+   FC =  0.5
+   IBV =  0.0001
+   TNOM =  27
)

.MODEL BYM10-100 D (
+   IS =  1.072e-08
+   RS =  0.0444
+   CJO =  1.603e-11
+   VJ =  0.75
+   TT =  5e-09
+   M =  0.342
+   BV =  118
+   N =  1.827
+   EG =  1.11
+   XTI =  3
+   KF =  0
+   AF =  1
+   FC =  0.5
+   IBV =  9e-08
+   TNOM =  27
)

.MODEL BYM10-1000 D (
+   IS =  9.005e-07
+   RS =  0.06065
+   CJO =  1.603e-11
+   VJ =  0.75
+   TT =  5e-09
+   M =  0.342
+   BV =  1180
+   N =  2.778
+   EG =  1.11
+   XTI =  3
+   KF =  0
+   AF =  1
+   FC =  0.5
+   IBV =  9e-08
+   TNOM =  27
)

.MODEL BYM10-200 D (
+   IS =  1.072e-08
+   RS =  0.0444
+   CJO =  1.603e-11
+   VJ =  0.75
+   TT =  5e-09
+   M =  0.342
+   BV =  236
+   N =  1.827
+   EG =  1.11
+   XTI =  3
+   KF =  0
+   AF =  1
+   FC =  0.5
+   IBV =  9e-08
+   TNOM =  27
)

.MODEL BYM10-400 D (
+   IS =  1.072e-08
+   RS =  0.0444
+   CJO =  1.603e-11
+   VJ =  0.75
+   TT =  5e-09
+   M =  0.342
+   BV =  472
+   N =  1.827
+   EG =  1.11
+   XTI =  3
+   KF =  0
+   AF =  1
+   FC =  0.5
+   IBV =  9e-08
+   TNOM =  27
)

.MODEL BYM10-50 D (
+   IS =  1.072e-08
+   RS =  0.0444
+   CJO =  1.603e-11
+   VJ =  0.75
+   TT =  5e-09
+   M =  0.342
+   BV =  59
+   N =  1.827
+   EG =  1.11
+   XTI =  3
+   KF =  0
+   AF =  1
+   FC =  0.5
+   IBV =  9e-08
+   TNOM =  27
)

.MODEL BYM10-600 D (
+   IS =  1.072e-08
+   RS =  0.0444
+   CJO =  1.603e-11
+   VJ =  0.75
+   TT =  5e-09
+   M =  0.342
+   BV =  708
+   N =  1.827
+   EG =  1.11
+   XTI =  3
+   KF =  0
+   AF =  1
+   FC =  0.5
+   IBV =  9e-08
+   TNOM =  27
)

.MODEL BYM10-800 D (
+   IS =  9.005e-07
+   RS =  0.06065
+   CJO =  1.603e-11
+   VJ =  0.75
+   TT =  5e-09
+   M =  0.342
+   BV =  944
+   N =  2.778
+   EG =  1.11
+   XTI =  3
+   KF =  0
+   AF =  1
+   FC =  0.5
+   IBV =  9e-08
+   TNOM =  27
)

.MODEL BYM11-100 D (
+   IS =  0.0001477
+   RS =  0.02901
+   CJO =  2.8e-11
+   VJ =  0.75
+   TT =  3.699e-07
+   M =  0.3971
+   BV =  120
+   N =  4.995
+   EG =  1.11
+   XTI =  3
+   KF =  0
+   AF =  1
+   FC =  0.5
+   IBV =  1.1e-07
+   TNOM =  27
)

.MODEL BYM11-1000 D (
+   IS =  0.0001477
+   RS =  0.02901
+   CJO =  2.8e-11
+   VJ =  0.75
+   TT =  1.233e-06
+   M =  0.3971
+   BV =  1200
+   N =  4.995
+   EG =  1.11
+   XTI =  3
+   KF =  0
+   AF =  1
+   FC =  0.5
+   IBV =  1.1e-07
+   TNOM =  27
)

.MODEL BYM11-200 D (
+   IS =  0.0001477
+   RS =  0.02901
+   CJO =  2.8e-11
+   VJ =  0.75
+   TT =  3.699e-07
+   M =  0.3971
+   BV =  240
+   N =  4.995
+   EG =  1.11
+   XTI =  3
+   KF =  0
+   AF =  1
+   FC =  0.5
+   IBV =  1.1e-07
+   TNOM =  27
)

.MODEL BYM11-400 D (
+   IS =  0.0001477
+   RS =  0.02901
+   CJO =  2.8e-11
+   VJ =  0.75
+   TT =  3.699e-07
+   M =  0.3971
+   BV =  480
+   N =  4.995
+   EG =  1.11
+   XTI =  3
+   KF =  0
+   AF =  1
+   FC =  0.5
+   IBV =  1.1e-07
+   TNOM =  27
)

.MODEL BYM11-50 D (
+   IS =  0.0001477
+   RS =  0.02901
+   CJO =  2.8e-11
+   VJ =  0.75
+   TT =  3.699e-07
+   M =  0.3971
+   BV =  60
+   N =  4.995
+   EG =  1.11
+   XTI =  3
+   KF =  0
+   AF =  1
+   FC =  0.5
+   IBV =  1.1e-07
+   TNOM =  27
)

.MODEL BYM11-600 D (
+   IS =  0.0001477
+   RS =  0.02901
+   CJO =  2.8e-11
+   VJ =  0.75
+   TT =  6.166e-07
+   M =  0.3971
+   BV =  720
+   N =  4.995
+   EG =  1.11
+   XTI =  3
+   KF =  0
+   AF =  1
+   FC =  0.5
+   IBV =  1.1e-07
+   TNOM =  27
)

.MODEL BYM11-800 D (
+   IS =  0.0001477
+   RS =  0.02901
+   CJO =  2.8e-11
+   VJ =  0.75
+   TT =  1.233e-06
+   M =  0.3971
+   BV =  960
+   N =  4.995
+   EG =  1.11
+   XTI =  3
+   KF =  0
+   AF =  1
+   FC =  0.5
+   IBV =  1.1e-07
+   TNOM =  27
)

.MODEL D1N3611GP D (
+   IS =  2.383e-07
+   RS =  0.0501
+   CJO =  2.066e-11
+   VJ =  0.3905
+   TT =  4.933e-06
+   M =  0.3891
+   BV =  240
+   N =  2.178
+   EG =  1.11
+   XTI =  3
+   KF =  0
+   AF =  1
+   FC =  0.5
+   IBV =  1e-07
+   TNOM =  27
)

.MODEL D1N3612GP D (
+   IS =  2.383e-07
+   RS =  0.0501
+   CJO =  2.066e-11
+   VJ =  0.3905
+   TT =  4.933e-06
+   M =  0.3891
+   BV =  480
+   N =  2.178
+   EG =  1.11
+   XTI =  3
+   KF =  0
+   AF =  1
+   FC =  0.5
+   IBV =  1e-07
+   TNOM =  27
)

.MODEL D1N3613GP D (
+   IS =  2.383e-07
+   RS =  0.0501
+   CJO =  2.066e-11
+   VJ =  0.3905
+   TT =  4.933e-06
+   M =  0.3891
+   BV =  720
+   N =  2.178
+   EG =  1.11
+   XTI =  3
+   KF =  0
+   AF =  1
+   FC =  0.5
+   IBV =  1e-07
+   TNOM =  27
)

.MODEL D1N3614GP D (
+   IS =  2.383e-07
+   RS =  0.0501
+   CJO =  2.066e-11
+   VJ =  0.3905
+   TT =  4.933e-06
+   M =  0.3891
+   BV =  960
+   N =  2.178
+   EG =  1.11
+   XTI =  3
+   KF =  0
+   AF =  1
+   FC =  0.5
+   IBV =  1e-07
+   TNOM =  27
)

.MODEL D1N3957GP D (
+   IS =  2.383e-07
+   RS =  0.0501
+   CJO =  2.066e-11
+   VJ =  0.3905
+   TT =  4.933e-06
+   M =  0.3891
+   BV =  1200
+   N =  2.178
+   EG =  1.11
+   XTI =  3
+   KF =  0
+   AF =  1
+   FC =  0.5
+   IBV =  1e-07
+   TNOM =  27
)

.MODEL D1N4001GP D (
+   IS =  6.698e-07
+   RS =  0.04255
+   CJO =  1.949e-11
+   VJ =  0.3905
+   TT =  4.933e-06
+   M =  0.3576
+   BV =  60
+   N =  2.412
+   EG =  1.11
+   XTI =  3
+   KF =  0
+   AF =  1
+   FC =  0.5
+   IBV =  1e-07
+   TNOM =  27
)

.MODEL D1N4002GP D (
+   IS =  6.698e-07
+   RS =  0.04255
+   CJO =  1.949e-11
+   VJ =  0.3909
+   TT =  4.933e-06
+   M =  0.3577
+   BV =  120
+   N =  2.412
+   EG =  1.11
+   XTI =  3
+   KF =  0
+   AF =  1
+   FC =  0.5
+   IBV =  1e-07
+   TNOM =  27
)

.MODEL D1N4003GP D (
+   IS =  6.698e-07
+   RS =  0.04255
+   CJO =  1.949e-11
+   VJ =  0.3909
+   TT =  4.933e-06
+   M =  0.3577
+   BV =  240
+   N =  2.412
+   EG =  1.11
+   XTI =  3
+   KF =  0
+   AF =  1
+   FC =  0.5
+   IBV =  1e-07
+   TNOM =  27
)

.MODEL D1N4004GP D (
+   IS =  6.698e-07
+   RS =  0.04255
+   CJO =  1.949e-11
+   VJ =  0.3909
+   TT =  4.933e-06
+   M =  0.3577
+   BV =  480
+   N =  2.412
+   EG =  1.11
+   XTI =  3
+   KF =  0
+   AF =  1
+   FC =  0.5
+   IBV =  1e-07
+   TNOM =  27
)

.MODEL D1N4005GP D (
+   IS =  6.698e-07
+   RS =  0.04255
+   CJO =  1.949e-11
+   VJ =  0.3909
+   TT =  4.933e-06
+   M =  0.3577
+   BV =  720
+   N =  2.412
+   EG =  1.11
+   XTI =  3
+   KF =  0
+   AF =  1
+   FC =  0.5
+   IBV =  1e-07
+   TNOM =  27
)

.MODEL D1N4006GP D (
+   IS =  6.698e-07
+   RS =  0.04255
+   CJO =  1.949e-11
+   VJ =  0.3909
+   TT =  4.933e-06
+   M =  0.3577
+   BV =  960
+   N =  2.412
+   EG =  1.11
+   XTI =  3
+   KF =  0
+   AF =  1
+   FC =  0.5
+   IBV =  1e-07
+   TNOM =  27
)

.MODEL D1N4007GP D (
+   IS =  6.698e-07
+   RS =  0.04255
+   CJO =  1.949e-11
+   VJ =  0.3909
+   TT =  4.933e-06
+   M =  0.3577
+   BV =  1200
+   N =  2.412
+   EG =  1.11
+   XTI =  3
+   KF =  0
+   AF =  1
+   FC =  0.5
+   IBV =  1e-07
+   TNOM =  27
)

.MODEL D1N4245GP D (
+   IS =  4.761e-07
+   RS =  0.04997
+   CJO =  2.066e-11
+   VJ =  0.3905
+   TT =  5e-09
+   M =  0.3891
+   BV =  240
+   N =  2.523
+   EG =  1.11
+   XTI =  3
+   KF =  0
+   AF =  1
+   FC =  0.5
+   IBV =  1e-07
+   TNOM =  27
)

.MODEL D1N4246GP D (
+   IS =  4.761e-07
+   RS =  0.04997
+   CJO =  2.066e-11
+   VJ =  0.3905
+   TT =  5e-09
+   M =  0.3891
+   BV =  480
+   N =  2.523
+   EG =  1.11
+   XTI =  3
+   KF =  0
+   AF =  1
+   FC =  0.5
+   IBV =  1e-07
+   TNOM =  27
)

.MODEL D1N4247GP D (
+   IS =  4.761e-07
+   RS =  0.04997
+   CJO =  2.066e-11
+   VJ =  0.3905
+   TT =  5e-09
+   M =  0.3891
+   BV =  720
+   N =  2.523
+   EG =  1.11
+   XTI =  3
+   KF =  0
+   AF =  1
+   FC =  0.5
+   IBV =  1e-07
+   TNOM =  27
)

.MODEL D1N4248GP D (
+   IS =  4.761e-07
+   RS =  0.04997
+   CJO =  2.066e-11
+   VJ =  0.3905
+   TT =  5e-09
+   M =  0.3891
+   BV =  960
+   N =  2.523
+   EG =  1.11
+   XTI =  3
+   KF =  0
+   AF =  1
+   FC =  0.5
+   IBV =  1e-07
+   TNOM =  27
)

.MODEL D1N4249GP D (
+   IS =  4.761e-07
+   RS =  0.04997
+   CJO =  2.066e-11
+   VJ =  0.3905
+   TT =  5e-09
+   M =  0.3891
+   BV =  1200
+   N =  2.523
+   EG =  1.11
+   XTI =  3
+   KF =  0
+   AF =  1
+   FC =  0.5
+   IBV =  1e-07
+   TNOM =  27
)

.MODEL D1N4383GP D (
+   IS =  3.991e-05
+   RS =  0.01065
+   CJO =  5.072e-11
+   VJ =  0.3905
+   TT =  4.933e-06
+   M =  0.416
+   BV =  240
+   N =  3.497
+   EG =  1.11
+   XTI =  3
+   KF =  0
+   AF =  1
+   FC =  0.5
+   IBV =  1e-07
+   TNOM =  27
)

.MODEL D1N4384GP D (
+   IS =  3.991e-05
+   RS =  0.01065
+   CJO =  5.072e-11
+   VJ =  0.3905
+   TT =  4.933e-06
+   M =  0.416
+   BV =  480
+   N =  3.497
+   EG =  1.11
+   XTI =  3
+   KF =  0
+   AF =  1
+   FC =  0.5
+   IBV =  1e-07
+   TNOM =  27
)

.MODEL D1N4385GP D (
+   IS =  3.991e-05
+   RS =  0.01065
+   CJO =  5.072e-11
+   VJ =  0.3905
+   TT =  4.933e-06
+   M =  0.416
+   BV =  720
+   N =  3.497
+   EG =  1.11
+   XTI =  3
+   KF =  0
+   AF =  1
+   FC =  0.5
+   IBV =  1e-07
+   TNOM =  27
)

.MODEL D1N4585GP D (
+   IS =  3.991e-05
+   RS =  0.01065
+   CJO =  5.072e-11
+   VJ =  0.3905
+   TT =  4.933e-06
+   M =  0.416
+   BV =  960
+   N =  3.497
+   EG =  1.11
+   XTI =  3
+   KF =  0
+   AF =  1
+   FC =  0.5
+   IBV =  1e-07
+   TNOM =  27
)

.MODEL D1N4586GP D (
+   IS =  3.991e-05
+   RS =  0.01065
+   CJO =  5.072e-11
+   VJ =  0.3905
+   TT =  4.933e-06
+   M =  0.416
+   BV =  1200
+   N =  3.497
+   EG =  1.11
+   XTI =  3
+   KF =  0
+   AF =  1
+   FC =  0.5
+   IBV =  1e-07
+   TNOM =  27
)

.MODEL D1N4933GP D (
+   IS =  3.94e-06
+   RS =  0.05583
+   CJO =  3.067e-11
+   VJ =  0.3905
+   TT =  4.933e-07
+   M =  0.3408
+   BV =  59
+   N =  3.203
+   EG =  1.11
+   XTI =  3
+   KF =  0
+   AF =  1
+   FC =  0.5
+   IBV =  9e-08
+   TNOM =  27
)

.MODEL D1N4934GP D (
+   IS =  3.94e-06
+   RS =  0.05583
+   CJO =  3.067e-11
+   VJ =  0.3905
+   TT =  4.933e-07
+   M =  0.3409
+   BV =  118
+   N =  3.203
+   EG =  1.11
+   XTI =  3
+   KF =  0
+   AF =  1
+   FC =  0.5
+   IBV =  9e-08
+   TNOM =  27
)

.MODEL D1N4935GP D (
+   IS =  3.94e-06
+   RS =  0.05583
+   CJO =  3.067e-11
+   VJ =  0.3905
+   TT =  4.933e-07
+   M =  0.3409
+   BV =  236
+   N =  3.203
+   EG =  1.11
+   XTI =  3
+   KF =  0
+   AF =  1
+   FC =  0.5
+   IBV =  9e-08
+   TNOM =  27
)

.MODEL D1N4936GP D (
+   IS =  3.94e-06
+   RS =  0.05583
+   CJO =  3.067e-11
+   VJ =  0.3905
+   TT =  4.933e-07
+   M =  0.3409
+   BV =  472
+   N =  3.203
+   EG =  1.11
+   XTI =  3
+   KF =  0
+   AF =  1
+   FC =  0.5
+   IBV =  9e-08
+   TNOM =  27
)

.MODEL D1N4937GP D (
+   IS =  3.94e-06
+   RS =  0.05583
+   CJO =  3.067e-11
+   VJ =  0.3905
+   TT =  4.933e-07
+   M =  0.3409
+   BV =  708
+   N =  3.203
+   EG =  1.11
+   XTI =  3
+   KF =  0
+   AF =  1
+   FC =  0.5
+   IBV =  9e-08
+   TNOM =  27
)

.MODEL D1N4942GP D (
+   IS =  4.011e-12
+   RS =  0.08095
+   CJO =  2.672e-11
+   VJ =  0.75
+   TT =  3.699e-07
+   M =  0.342
+   BV =  236
+   N =  1.071
+   EG =  1.11
+   XTI =  3
+   KF =  0
+   AF =  1
+   FC =  0.5
+   IBV =  1.05e-07
+   TNOM =  27
)

.MODEL D1N4944GP D (
+   IS =  4.011e-12
+   RS =  0.08095
+   CJO =  2.672e-11
+   VJ =  0.75
+   TT =  3.699e-07
+   M =  0.342
+   BV =  472
+   N =  1.071
+   EG =  1.11
+   XTI =  3
+   KF =  0
+   AF =  1
+   FC =  0.5
+   IBV =  1.05e-07
+   TNOM =  27
)

.MODEL D1N4946GP D (
+   IS =  4.011e-12
+   RS =  0.08095
+   CJO =  2.672e-11
+   VJ =  0.75
+   TT =  6.166e-07
+   M =  0.342
+   BV =  708
+   N =  1.071
+   EG =  1.11
+   XTI =  3
+   KF =  0
+   AF =  1
+   FC =  0.5
+   IBV =  1.05e-07
+   TNOM =  27
)

.MODEL D1N4947GP D (
+   IS =  4.011e-12
+   RS =  0.08095
+   CJO =  2.672e-11
+   VJ =  0.75
+   TT =  6.166e-07
+   M =  0.342
+   BV =  944
+   N =  1.071
+   EG =  1.11
+   XTI =  3
+   KF =  0
+   AF =  1
+   FC =  0.5
+   IBV =  1.05e-07
+   TNOM =  27
)

.MODEL D1N4948GP D (
+   IS =  4.011e-12
+   RS =  0.08095
+   CJO =  2.672e-11
+   VJ =  0.75
+   TT =  1.233e-06
+   M =  0.342
+   BV =  1180
+   N =  1.071
+   EG =  1.11
+   XTI =  3
+   KF =  0
+   AF =  1
+   FC =  0.5
+   IBV =  1.05e-07
+   TNOM =  27
)

.MODEL D1N5059GP D (
+   IS =  2.295e-07
+   RS =  0.03125
+   CJO =  3.903e-11
+   VJ =  0.3905
+   TT =  4.933e-06
+   M =  0.3521
+   BV =  240
+   N =  2.171
+   EG =  1.11
+   XTI =  3
+   KF =  0
+   AF =  1
+   FC =  0.5
+   IBV =  1e-07
+   TNOM =  27
)

.MODEL D1N5060GP D (
+   IS =  2.295e-07
+   RS =  0.03125
+   CJO =  3.903e-11
+   VJ =  0.3905
+   TT =  4.933e-06
+   M =  0.3521
+   BV =  480
+   N =  2.171
+   EG =  1.11
+   XTI =  3
+   KF =  0
+   AF =  1
+   FC =  0.5
+   IBV =  1e-07
+   TNOM =  27
)

.MODEL D1N5061GP D (
+   IS =  2.295e-07
+   RS =  0.03125
+   CJO =  3.903e-11
+   VJ =  0.3905
+   TT =  4.933e-06
+   M =  0.3521
+   BV =  720
+   N =  2.171
+   EG =  1.11
+   XTI =  3
+   KF =  0
+   AF =  1
+   FC =  0.5
+   IBV =  1e-07
+   TNOM =  27
)

.MODEL D1N5062GP D (
+   IS =  2.295e-07
+   RS =  0.03125
+   CJO =  3.903e-11
+   VJ =  0.3905
+   TT =  4.933e-06
+   M =  0.3521
+   BV =  960
+   N =  2.171
+   EG =  1.11
+   XTI =  3
+   KF =  0
+   AF =  1
+   FC =  0.5
+   IBV =  1e-07
+   TNOM =  27
)

.MODEL D1N5391GP D (
+   IS =  2.776e-05
+   RS =  0.02056
+   CJO =  4.754e-11
+   VJ =  0.3905
+   TT =  4.933e-06
+   M =  0.366799
+   BV =  60
+   N =  3.609
+   EG =  1.11
+   XTI =  3
+   KF =  0
+   AF =  1
+   FC =  0.5
+   IBV =  1e-07
+   TNOM =  27
)

.MODEL D1N5392GP D (
+   IS =  2.776e-05
+   RS =  0.02056
+   CJO =  4.754e-11
+   VJ =  0.3905
+   TT =  4.933e-06
+   M =  0.3668
+   BV =  120
+   N =  3.609
+   EG =  1.11
+   XTI =  3
+   KF =  0
+   AF =  1
+   FC =  0.5
+   IBV =  1e-07
+   TNOM =  27
)

.MODEL D1N5393GP D (
+   IS =  2.776e-05
+   RS =  0.02056
+   CJO =  4.754e-11
+   VJ =  0.3905
+   TT =  4.933e-06
+   M =  0.3668
+   BV =  240
+   N =  3.609
+   EG =  1.11
+   XTI =  3
+   KF =  0
+   AF =  1
+   FC =  0.5
+   IBV =  1e-07
+   TNOM =  27
)

.MODEL D1N5394GP D (
+   IS =  2.776e-05
+   RS =  0.02056
+   CJO =  4.754e-11
+   VJ =  0.3905
+   TT =  4.933e-06
+   M =  0.3668
+   BV =  360
+   N =  3.609
+   EG =  1.11
+   XTI =  3
+   KF =  0
+   AF =  1
+   FC =  0.5
+   IBV =  1e-07
+   TNOM =  27
)

.MODEL D1N5395GP D (
+   IS =  2.776e-05
+   RS =  0.02056
+   CJO =  4.754e-11
+   VJ =  0.3905
+   TT =  4.933e-06
+   M =  0.3668
+   BV =  480
+   N =  3.609
+   EG =  1.11
+   XTI =  3
+   KF =  0
+   AF =  1
+   FC =  0.5
+   IBV =  1e-07
+   TNOM =  27
)

.MODEL D1N5396GP D (
+   IS =  2.776e-05
+   RS =  0.02056
+   CJO =  4.754e-11
+   VJ =  0.3905
+   TT =  4.933e-06
+   M =  0.3668
+   BV =  600
+   N =  3.609
+   EG =  1.11
+   XTI =  3
+   KF =  0
+   AF =  1
+   FC =  0.5
+   IBV =  1e-07
+   TNOM =  27
)

.MODEL D1N5397GP D (
+   IS =  2.776e-05
+   RS =  0.02056
+   CJO =  4.754e-11
+   VJ =  0.3905
+   TT =  4.933e-06
+   M =  0.3668
+   BV =  720
+   N =  3.609
+   EG =  1.11
+   XTI =  3
+   KF =  0
+   AF =  1
+   FC =  0.5
+   IBV =  1e-07
+   TNOM =  27
)

.MODEL D1N5398GP D (
+   IS =  2.776e-05
+   RS =  0.02056
+   CJO =  4.754e-11
+   VJ =  0.3905
+   TT =  4.933e-06
+   M =  0.3668
+   BV =  960
+   N =  3.609
+   EG =  1.11
+   XTI =  3
+   KF =  0
+   AF =  1
+   FC =  0.5
+   IBV =  1e-07
+   TNOM =  27
)

.MODEL D1N5399GP D (
+   IS =  2.776e-05
+   RS =  0.02056
+   CJO =  4.754e-11
+   VJ =  0.3905
+   TT =  4.933e-06
+   M =  0.3668
+   BV =  1200
+   N =  3.609
+   EG =  1.11
+   XTI =  3
+   KF =  0
+   AF =  1
+   FC =  0.5
+   IBV =  1e-07
+   TNOM =  27
)

.MODEL D1N5615GP D (
+   IS =  1.429e-05
+   RS =  0.08654
+   CJO =  6.127e-11
+   VJ =  0.75
+   TT =  3.699e-07
+   M =  0.4742
+   BV =  240
+   N =  3.535
+   EG =  1.11
+   XTI =  3
+   KF =  0
+   AF =  1
+   FC =  0.5
+   IBV =  1.05e-07
+   TNOM =  27
)

.MODEL D1N5617GP D (
+   IS =  0.0001577
+   RS =  0.05089
+   CJO =  6.127e-11
+   VJ =  0.75
+   TT =  3.699e-07
+   M =  0.4742
+   BV =  480
+   N =  4.995
+   EG =  1.11
+   XTI =  3
+   KF =  0
+   AF =  1
+   FC =  0.5
+   IBV =  1.05e-07
+   TNOM =  27
)

.MODEL D1N5619GP D (
+   IS =  0.0001577
+   RS =  0.05089
+   CJO =  6.127e-11
+   VJ =  0.75
+   TT =  3.699e-07
+   M =  0.4742
+   BV =  720
+   N =  4.995
+   EG =  1.11
+   XTI =  3
+   KF =  0
+   AF =  1
+   FC =  0.5
+   IBV =  1.05e-07
+   TNOM =  27
)

.MODEL D1N5621GP D (
+   IS =  0.0001577
+   RS =  0.05089
+   CJO =  6.127e-11
+   VJ =  0.75
+   TT =  3.699e-07
+   M =  0.4742
+   BV =  960
+   N =  4.995
+   EG =  1.11
+   XTI =  3
+   KF =  0
+   AF =  1
+   FC =  0.5
+   IBV =  1.05e-07
+   TNOM =  27
)

.MODEL D1N5623GP D (
+   IS =  0.0001577
+   RS =  0.05089
+   CJO =  6.127e-11
+   VJ =  0.75
+   TT =  3.699e-07
+   M =  0.4742
+   BV =  1200
+   N =  4.995
+   EG =  1.11
+   XTI =  3
+   KF =  0
+   AF =  1
+   FC =  0.5
+   IBV =  1.05e-07
+   TNOM =  27
)

.MODEL D1N5624GP D (
+   IS =  2.094e-07
+   RS =  0.01735
+   CJO =  7.4e-11
+   VJ =  0.75
+   TT =  7.399e-06
+   M =  0.2475
+   BV =  240
+   N =  2.005
+   EG =  1.11
+   XTI =  3
+   KF =  0
+   AF =  1
+   FC =  0.5
+   IBV =  1.05e-07
+   TNOM =  27
)

.MODEL D1N5625GP D (
+   IS =  2.094e-07
+   RS =  0.01735
+   CJO =  7.4e-11
+   VJ =  0.75
+   TT =  7.399e-06
+   M =  0.2475
+   BV =  480
+   N =  2.005
+   EG =  1.11
+   XTI =  3
+   KF =  0
+   AF =  1
+   FC =  0.5
+   IBV =  1.05e-07
+   TNOM =  27
)

.MODEL D1N5626GP D (
+   IS =  2.094e-07
+   RS =  0.01735
+   CJO =  7.4e-11
+   VJ =  0.75
+   TT =  7.399e-06
+   M =  0.2475
+   BV =  720
+   N =  2.005
+   EG =  1.11
+   XTI =  3
+   KF =  0
+   AF =  1
+   FC =  0.5
+   IBV =  1.05e-07
+   TNOM =  27
)

.MODEL D1N5627GP D (
+   IS =  2.094e-07
+   RS =  0.01735
+   CJO =  7.4e-11
+   VJ =  0.75
+   TT =  7.399e-06
+   M =  0.2475
+   BV =  960
+   N =  2.005
+   EG =  1.11
+   XTI =  3
+   KF =  0
+   AF =  1
+   FC =  0.5
+   IBV =  1.05e-07
+   TNOM =  27
)

.MODEL D1N5820 D (
+   IS =  0.0999
+   RS =  0.0156
+   CJO =  6.65e-10
+   VJ =  3.719
+   TT =  5e-09
+   M =  0.8593
+   BV =  24
+   N =  4.995
+   EG =  1.11
+   XTI =  3
+   KF =  0
+   AF =  1
+   FC =  0.5
+   IBV =  2e-07
+   TNOM =  27
)

.MODEL D1N5821 D (
+   IS =  0.1
+   RS =  0.0156
+   CJO =  6.65e-10
+   VJ =  3.719
+   TT =  5e-09
+   M =  0.8593
+   BV =  36
+   N =  4.995
+   EG =  1.11
+   XTI =  3
+   KF =  0
+   AF =  1
+   FC =  0.5
+   IBV =  2e-07
+   TNOM =  27
)

.MODEL D1N5822 D (
+   IS =  0.1
+   RS =  0.0156
+   CJO =  6.65e-10
+   VJ =  3.719
+   TT =  5e-09
+   M =  0.8593
+   BV =  48
+   N =  4.995
+   EG =  1.11
+   XTI =  3
+   KF =  0
+   AF =  1
+   FC =  0.5
+   IBV =  2e-07
+   TNOM =  27
)

.MODEL D1N6478 D (
+   IS =  8.839e-08
+   RS =  0.04167
+   CJO =  1.603e-11
+   VJ =  0.75
+   TT =  5e-09
+   M =  0.342
+   BV =  60
+   N =  2.092
+   EG =  1.11
+   XTI =  3
+   KF =  0
+   AF =  1
+   FC =  0.5
+   IBV =  1.05e-07
+   TNOM =  27
)

.MODEL D1N6479 D (
+   IS =  8.839e-08
+   RS =  0.04167
+   CJO =  1.603e-11
+   VJ =  0.75
+   TT =  5e-09
+   M =  0.342
+   BV =  120
+   N =  2.092
+   EG =  1.11
+   XTI =  3
+   KF =  0
+   AF =  1
+   FC =  0.5
+   IBV =  1.05e-07
+   TNOM =  27
)

.MODEL D1N6480 D (
+   IS =  8.839e-08
+   RS =  0.04167
+   CJO =  1.603e-11
+   VJ =  0.75
+   TT =  5e-09
+   M =  0.342
+   BV =  240
+   N =  2.092
+   EG =  1.11
+   XTI =  3
+   KF =  0
+   AF =  1
+   FC =  0.5
+   IBV =  1.05e-07
+   TNOM =  27
)

.MODEL D1N6481 D (
+   IS =  8.839e-08
+   RS =  0.04167
+   CJO =  1.603e-11
+   VJ =  0.75
+   TT =  5e-09
+   M =  0.342
+   BV =  480
+   N =  2.092
+   EG =  1.11
+   XTI =  3
+   KF =  0
+   AF =  1
+   FC =  0.5
+   IBV =  1.05e-07
+   TNOM =  27
)

.MODEL D1N6482 D (
+   IS =  8.839e-08
+   RS =  0.04167
+   CJO =  1.603e-11
+   VJ =  0.75
+   TT =  5e-09
+   M =  0.342
+   BV =  720
+   N =  2.092
+   EG =  1.11
+   XTI =  3
+   KF =  0
+   AF =  1
+   FC =  0.5
+   IBV =  1.05e-07
+   TNOM =  27
)

.MODEL D1N6483 D (
+   IS =  8.839e-08
+   RS =  0.04167
+   CJO =  1.603e-11
+   VJ =  0.75
+   TT =  5e-09
+   M =  0.342
+   BV =  960
+   N =  2.092
+   EG =  1.11
+   XTI =  3
+   KF =  0
+   AF =  1
+   FC =  0.5
+   IBV =  1.05e-07
+   TNOM =  27
)

.MODEL D1N6484 D (
+   IS =  8.839e-08
+   RS =  0.04167
+   CJO =  1.603e-11
+   VJ =  0.75
+   TT =  5e-09
+   M =  0.342
+   BV =  1200
+   N =  2.092
+   EG =  1.11
+   XTI =  3
+   KF =  0
+   AF =  1
+   FC =  0.5
+   IBV =  1.05e-07
+   TNOM =  27
)

.MODEL GF1A D (
+   IS =  2.231e-09
+   RS =  0.04349
+   CJO =  3.5e-11
+   VJ =  0.75
+   TT =  4.933e-06
+   M =  0.3971
+   BV =  59
+   N =  1.766
+   EG =  1.11
+   XTI =  3
+   KF =  0
+   AF =  1
+   FC =  0.5
+   IBV =  1e-07
+   TNOM =  27
)

.MODEL GF1B D (
+   IS =  2.231e-09
+   RS =  0.04349
+   CJO =  3.5e-11
+   VJ =  0.75
+   TT =  4.933e-06
+   M =  0.3971
+   BV =  118
+   N =  1.766
+   EG =  1.11
+   XTI =  3
+   KF =  0
+   AF =  1
+   FC =  0.5
+   IBV =  1e-07
+   TNOM =  27
)

.MODEL GF1D D (
+   IS =  2.231e-09
+   RS =  0.04349
+   CJO =  3.5e-11
+   VJ =  0.75
+   TT =  4.933e-06
+   M =  0.3971
+   BV =  236
+   N =  1.766
+   EG =  1.11
+   XTI =  3
+   KF =  0
+   AF =  1
+   FC =  0.5
+   IBV =  1e-07
+   TNOM =  27
)

.MODEL GF1G D (
+   IS =  2.231e-09
+   RS =  0.04349
+   CJO =  3.5e-11
+   VJ =  0.75
+   TT =  4.933e-06
+   M =  0.3971
+   BV =  472
+   N =  1.766
+   EG =  1.11
+   XTI =  3
+   KF =  0
+   AF =  1
+   FC =  0.5
+   IBV =  1e-07
+   TNOM =  27
)

.MODEL GF1J D (
+   IS =  2.231e-09
+   RS =  0.04349
+   CJO =  3.5e-11
+   VJ =  0.75
+   TT =  4.933e-06
+   M =  0.3971
+   BV =  708
+   N =  1.766
+   EG =  1.11
+   XTI =  3
+   KF =  0
+   AF =  1
+   FC =  0.5
+   IBV =  1e-07
+   TNOM =  27
)

.MODEL GF1K D (
+   IS =  2.231e-09
+   RS =  0.04349
+   CJO =  3.5e-11
+   VJ =  0.75
+   TT =  4.933e-06
+   M =  0.3971
+   BV =  944
+   N =  1.766
+   EG =  1.11
+   XTI =  3
+   KF =  0
+   AF =  1
+   FC =  0.5
+   IBV =  1e-07
+   TNOM =  27
)

.MODEL GF1M D (
+   IS =  2.231e-09
+   RS =  0.04349
+   CJO =  3.5e-11
+   VJ =  0.75
+   TT =  4.933e-06
+   M =  0.3971
+   BV =  1180
+   N =  1.766
+   EG =  1.11
+   XTI =  3
+   KF =  0
+   AF =  1
+   FC =  0.5
+   IBV =  1e-07
+   TNOM =  27
)

.MODEL GI250-1 D (
+   IS =  3.328e-08
+   RS =  0.4012
+   CJO =  5.994e-12
+   VJ =  1.265
+   TT =  4.933e-06
+   M =  0.4327
+   BV =  1200
+   N =  5
+   EG =  1.11
+   XTI =  3
+   KF =  0
+   AF =  1
+   FC =  0.5
+   IBV =  1e-07
+   TNOM =  27
)

.MODEL GI250-2 D (
+   IS =  3.327e-08
+   RS =  0.4012
+   CJO =  5.994e-12
+   VJ =  1.265
+   TT =  4.933e-06
+   M =  0.4327
+   BV =  2400
+   N =  5
+   EG =  1.11
+   XTI =  3
+   KF =  0
+   AF =  1
+   FC =  0.5
+   IBV =  1e-07
+   TNOM =  27
)

.MODEL GI250-3 D (
+   IS =  3.327e-08
+   RS =  0.4012
+   CJO =  5.994e-12
+   VJ =  1.265
+   TT =  4.933e-06
+   M =  0.4327
+   BV =  3600
+   N =  5
+   EG =  1.11
+   XTI =  3
+   KF =  0
+   AF =  1
+   FC =  0.5
+   IBV =  1e-07
+   TNOM =  27
)

.MODEL GI250-4 D (
+   IS =  3.326e-08
+   RS =  0.4012
+   CJO =  5.994e-12
+   VJ =  1.265
+   TT =  4.933e-06
+   M =  0.4327
+   BV =  4800
+   N =  5
+   EG =  1.11
+   XTI =  3
+   KF =  0
+   AF =  1
+   FC =  0.5
+   IBV =  1e-07
+   TNOM =  27
)

.MODEL GI810 D (
+   IS =  6.265e-06
+   RS =  0.02586
+   CJO =  9.784e-11
+   VJ =  0.3905
+   TT =  1.85e-06
+   M =  0.5307
+   BV =  60
+   N =  3.144
+   EG =  1.11
+   XTI =  3
+   KF =  0
+   AF =  1
+   FC =  0.5
+   IBV =  1e-07
+   TNOM =  27
)

.MODEL GI811 D (
+   IS =  6.265e-06
+   RS =  0.02586
+   CJO =  9.783e-11
+   VJ =  0.3905
+   TT =  1.85e-06
+   M =  0.5307
+   BV =  120
+   N =  3.144
+   EG =  1.11
+   XTI =  3
+   KF =  0
+   AF =  1
+   FC =  0.5
+   IBV =  1e-07
+   TNOM =  27
)

.MODEL GI812 D (
+   IS =  6.265e-06
+   RS =  0.02586
+   CJO =  9.783e-11
+   VJ =  0.3905
+   TT =  1.85e-06
+   M =  0.5307
+   BV =  240
+   N =  3.144
+   EG =  1.11
+   XTI =  3
+   KF =  0
+   AF =  1
+   FC =  0.5
+   IBV =  1e-07
+   TNOM =  27
)

.MODEL GI814 D (
+   IS =  6.265e-06
+   RS =  0.02586
+   CJO =  9.783e-11
+   VJ =  0.3905
+   TT =  1.85e-06
+   M =  0.5307
+   BV =  480
+   N =  3.144
+   EG =  1.11
+   XTI =  3
+   KF =  0
+   AF =  1
+   FC =  0.5
+   IBV =  1e-07
+   TNOM =  27
)

.MODEL GI816 D (
+   IS =  6.265e-06
+   RS =  0.02586
+   CJO =  9.783e-11
+   VJ =  0.3905
+   TT =  1.85e-06
+   M =  0.5307
+   BV =  720
+   N =  3.144
+   EG =  1.11
+   XTI =  3
+   KF =  0
+   AF =  1
+   FC =  0.5
+   IBV =  1e-07
+   TNOM =  27
)

.MODEL GI817 D (
+   IS =  6.241e-06
+   RS =  0.02585
+   CJO =  9.783e-11
+   VJ =  0.3905
+   TT =  1.85e-06
+   M =  0.5307
+   BV =  960
+   N =  3.142
+   EG =  1.11
+   XTI =  3
+   KF =  0
+   AF =  1
+   FC =  0.5
+   IBV =  1e-07
+   TNOM =  27
)

.MODEL GI818 D (
+   IS =  6.265e-06
+   RS =  0.02586
+   CJO =  9.783e-11
+   VJ =  0.3905
+   TT =  1.85e-06
+   M =  0.5307
+   BV =  1200
+   N =  3.144
+   EG =  1.11
+   XTI =  3
+   KF =  0
+   AF =  1
+   FC =  0.5
+   IBV =  1e-07
+   TNOM =  27
)

.MODEL GL34A D (
+   IS =  1.137e-05
+   RS =  0.04622
+   CJO =  6.86e-12
+   VJ =  2.62
+   TT =  3.699e-06
+   M =  0.4145
+   BV =  60
+   N =  3.533
+   EG =  1.11
+   XTI =  3
+   KF =  0
+   AF =  1
+   FC =  0.5
+   IBV =  7e-08
+   TNOM =  27
)

.MODEL GL34B D (
+   IS =  1.137e-05
+   RS =  0.04622
+   CJO =  6.86e-12
+   VJ =  2.62
+   TT =  3.699e-06
+   M =  0.4145
+   BV =  120
+   N =  3.533
+   EG =  1.11
+   XTI =  3
+   KF =  0
+   AF =  1
+   FC =  0.5
+   IBV =  7e-08
+   TNOM =  27
)

.MODEL GL34D D (
+   IS =  1.137e-05
+   RS =  0.04622
+   CJO =  6.86e-12
+   VJ =  2.62
+   TT =  3.699e-06
+   M =  0.4145
+   BV =  240
+   N =  3.533
+   EG =  1.11
+   XTI =  3
+   KF =  0
+   AF =  1
+   FC =  0.5
+   IBV =  7e-08
+   TNOM =  27
)

.MODEL GL34G D (
+   IS =  1.137e-05
+   RS =  0.04622
+   CJO =  6.86e-12
+   VJ =  2.62
+   TT =  3.699e-06
+   M =  0.4145
+   BV =  480
+   N =  3.533
+   EG =  1.11
+   XTI =  3
+   KF =  0
+   AF =  1
+   FC =  0.5
+   IBV =  7e-08
+   TNOM =  27
)

.MODEL GL34J D (
+   IS =  1.137e-05
+   RS =  0.04622
+   CJO =  6.86e-12
+   VJ =  2.62
+   TT =  3.699e-06
+   M =  0.4145
+   BV =  720
+   N =  3.533
+   EG =  1.11
+   XTI =  3
+   KF =  0
+   AF =  1
+   FC =  0.5
+   IBV =  7e-08
+   TNOM =  27
)

.MODEL GP02-20 D (
+   IS =  9.553e-08
+   RS =  0.3129
+   CJO =  4.921e-12
+   VJ =  1.467
+   TT =  4.933e-06
+   M =  0.3761
+   BV =  2400
+   N =  5
+   EG =  1.11
+   XTI =  3
+   KF =  0
+   AF =  1
+   FC =  0.5
+   IBV =  4e-08
+   TNOM =  27
)

.MODEL GP02-25 D (
+   IS =  9.553e-08
+   RS =  0.3129
+   CJO =  4.921e-12
+   VJ =  1.467
+   TT =  4.933e-06
+   M =  0.3761
+   BV =  3000
+   N =  5
+   EG =  1.11
+   XTI =  3
+   KF =  0
+   AF =  1
+   FC =  0.5
+   IBV =  4e-08
+   TNOM =  27
)

.MODEL GP02-30 D (
+   IS =  9.553e-08
+   RS =  0.3129
+   CJO =  4.921e-12
+   VJ =  1.467
+   TT =  4.933e-06
+   M =  0.3761
+   BV =  3600
+   N =  5
+   EG =  1.11
+   XTI =  3
+   KF =  0
+   AF =  1
+   FC =  0.5
+   IBV =  4e-08
+   TNOM =  27
)

.MODEL GP02-35 D (
+   IS =  9.553e-08
+   RS =  0.3129
+   CJO =  4.921e-12
+   VJ =  1.467
+   TT =  4.933e-06
+   M =  0.3761
+   BV =  4200
+   N =  5
+   EG =  1.11
+   XTI =  3
+   KF =  0
+   AF =  1
+   FC =  0.5
+   IBV =  4e-08
+   TNOM =  27
)

.MODEL GP02-40 D (
+   IS =  9.554e-08
+   RS =  0.3129
+   CJO =  4.921e-12
+   VJ =  1.467
+   TT =  4.933e-06
+   M =  0.3761
+   BV =  4800
+   N =  5
+   EG =  1.11
+   XTI =  3
+   KF =  0
+   AF =  1
+   FC =  0.5
+   IBV =  4e-08
+   TNOM =  27
)

.MODEL GP08A D (
+   IS =  0.0002001
+   RS =  0.0003014
+   CJO =  2.171e-11
+   VJ =  0.3905
+   TT =  4.933e-06
+   M =  0.4014
+   BV =  60
+   N =  4.992
+   EG =  1.11
+   XTI =  3
+   KF =  0
+   AF =  1
+   FC =  0.5
+   IBV =  1e-07
+   TNOM =  27
)

.MODEL GP08B D (
+   IS =  6.798e-08
+   RS =  0.01654
+   CJO =  2.172e-11
+   VJ =  0.3905
+   TT =  4.933e-06
+   M =  0.4014
+   BV =  120
+   N =  2.538
+   EG =  1.11
+   XTI =  3
+   KF =  0
+   AF =  1
+   FC =  0.5
+   IBV =  1e-07
+   TNOM =  27
)

.MODEL GP08D D (
+   IS =  6.798e-08
+   RS =  0.01654
+   CJO =  2.172e-11
+   VJ =  0.3905
+   TT =  4.933e-06
+   M =  0.4014
+   BV =  240
+   N =  2.538
+   EG =  1.11
+   XTI =  3
+   KF =  0
+   AF =  1
+   FC =  0.5
+   IBV =  1e-07
+   TNOM =  27
)

.MODEL GP08G D (
+   IS =  6.798e-08
+   RS =  0.01654
+   CJO =  2.172e-11
+   VJ =  0.3905
+   TT =  4.933e-06
+   M =  0.4014
+   BV =  480
+   N =  2.538
+   EG =  1.11
+   XTI =  3
+   KF =  0
+   AF =  1
+   FC =  0.5
+   IBV =  1e-07
+   TNOM =  27
)

.MODEL GP08J D (
+   IS =  6.798e-08
+   RS =  0.01654
+   CJO =  2.172e-11
+   VJ =  0.3905
+   TT =  4.933e-06
+   M =  0.4014
+   BV =  720
+   N =  2.538
+   EG =  1.11
+   XTI =  3
+   KF =  0
+   AF =  1
+   FC =  0.5
+   IBV =  1e-07
+   TNOM =  27
)

.MODEL GP10A D (
+   IS =  8.357e-08
+   RS =  0.04813
+   CJO =  1.947e-11
+   VJ =  0.3905
+   TT =  4.933e-06
+   M =  0.3831
+   BV =  60
+   N =  2.214
+   EG =  1.11
+   XTI =  3
+   KF =  0
+   AF =  1
+   FC =  0.5
+   IBV =  3e-07
+   TNOM =  27
)

.MODEL GP10B D (
+   IS =  8.357e-08
+   RS =  0.04813
+   CJO =  1.947e-11
+   VJ =  0.3905
+   TT =  4.933e-06
+   M =  0.3831
+   BV =  120
+   N =  2.214