***********************************************
*ELECTRONICS WORKBENCH MODEL FILE             * 
*MODELS GENERATED BY: S.IRELAND/S.MOORE       *
*(c) 1996 INTERACTIVE IMAGE TECHNOLOGIES LTD. * 
*TORONTO, ONTARIO (416)977-5550.              *
***********************************************
.MODEL BA220 D (
+   IS =  1.56e-07
+   RS =  1e-07
+   CJO =  2.5e-12
+   VJ =  0.75
+   TT =  2.595e-08
+   M =  0.3333
+   BV =  100
+   N =  1.68
+   EG =  1.11
+   XTI =  3
+   KF =  0
+   AF =  1
+   FC =  0.5
+   IBV =  0.0001
+   TNOM =  27
)

.MODEL BA221 D (
+   IS =  1.985e-08
+   RS =  0.6003
+   CJO =  2.5e-12
+   VJ =  0.75
+   TT =  2.595e-08
+   M =  0.3333
+   BV =  100
+   N =  1.9
+   EG =  1.11
+   XTI =  3
+   KF =  0
+   AF =  1
+   FC =  0.5
+   IBV =  0.0001
+   TNOM =  27
)

.MODEL BA223 D (
+   IS =  8.101e-19
+   RS =  0.0011
+   CJO =  7.999e-12
+   VJ =  0.6184
+   TT =  5e-09
+   M =  0.4069
+   BV =  100
+   N =  1
+   EG =  1.11
+   XTI =  3
+   KF =  0
+   AF =  1
+   FC =  0.5
+   IBV =  0.0001
+   TNOM =  27
)

.MODEL BA281 D (
+   IS =  2.781e-08
+   RS =  0.0011
+   CJO =  1.3e-12
+   VJ =  0.75
+   TT =  5e-09
+   M =  0.3333
+   BV =  100
+   N =  2.561
+   EG =  1.11
+   XTI =  3
+   KF =  0
+   AF =  1
+   FC =  0.5
+   IBV =  0.0001
+   TNOM =  27
)

.MODEL BA314 D (
+   IS =  2.772e-12
+   RS =  0.5
+   CJO =  1.4e-10
+   VJ =  0.75
+   TT =  5e-09
+   M =  0.3333
+   BV =  100
+   N =  1.4
+   EG =  1.11
+   XTI =  3
+   KF =  0
+   AF =  1
+   FC =  0.5
+   IBV =  0.0001
+   TNOM =  27
)

.MODEL BA315 D (
+   IS =  2.96e-10
+   RS =  0.151
+   CJO =  3e-12
+   VJ =  0.75
+   TT =  5e-09
+   M =  0.3333
+   BV =  100
+   N =  1.73
+   EG =  1.11
+   XTI =  3
+   KF =  0
+   AF =  1
+   FC =  0.5
+   IBV =  0.0001
+   TNOM =  27
)

.MODEL BA316 D (
+   IS =  9.309e-10
+   RS =  1.435
+   CJO =  2e-12
+   VJ =  0.75
+   TT =  2.595e-08
+   M =  0.3333
+   BV =  100
+   N =  2
+   EG =  1.11
+   XTI =  3
+   KF =  0
+   AF =  1
+   FC =  0.5
+   IBV =  0.0001
+   TNOM =  27
)

.MODEL BA317 D (
+   IS =  1.001e-16
+   RS =  0.999
+   CJO =  2e-12
+   VJ =  0.75
+   TT =  2.595e-08
+   M =  0.3333
+   BV =  100
+   N =  1
+   EG =  1.11
+   XTI =  3
+   KF =  0
+   AF =  1
+   FC =  0.5
+   IBV =  0.0001
+   TNOM =  27
)

.MODEL BA318 D (
+   IS =  6.309e-09
+   RS =  1.235
+   CJO =  2e-12
+   VJ =  0.75
+   TT =  2.595e-08
+   M =  0.3333
+   BV =  100
+   N =  2
+   EG =  1.11
+   XTI =  3
+   KF =  0
+   AF =  1
+   FC =  0.5
+   IBV =  0.0001
+   TNOM =  27
)

.MODEL BA423 D (
+   IS =  3.87e-17
+   RS =  0.0011
+   CJO =  4.275e-12
+   VJ =  0.75
+   TT =  5e-09
+   M =  0.3333
+   BV =  100
+   N =  1
+   EG =  1.11
+   XTI =  3
+   KF =  0
+   AF =  1
+   FC =  0.5
+   IBV =  0.0001
+   TNOM =  27
)

.MODEL BA423L D (
+   IS =  3.87e-17
+   RS =  0.0011
+   CJO =  4.275e-12
+   VJ =  0.75
+   TT =  5e-09
+   M =  0.3333
+   BV =  100
+   N =  1
+   EG =  1.11
+   XTI =  3
+   KF =  0
+   AF =  1
+   FC =  0.5
+   IBV =  0.0001
+   TNOM =  27
)

.MODEL BA481 D (
+   IS =  1.003e-06
+   RS =  0.0011
+   CJO =  1.1e-12
+   VJ =  0.75
+   TT =  5e-09
+   M =  0.3333
+   BV =  100
+   N =  2.52
+   EG =  1.11
+   XTI =  3
+   KF =  0
+   AF =  1
+   FC =  0.5
+   IBV =  0.0001
+   TNOM =  27
)

.MODEL BA482 D (
+   IS =  1.001e-16
+   RS =  0.0011
+   CJO =  2.052e-12
+   VJ =  0.75
+   TT =  5e-09
+   M =  0.3333
+   BV =  100
+   N =  1
+   EG =  1.11
+   XTI =  3
+   KF =  0
+   AF =  1
+   FC =  0.5
+   IBV =  0.0001
+   TNOM =  27
)

.MODEL BA483 D (
+   IS =  1.001e-16
+   RS =  0.0011
+   CJO =  1.197e-12
+   VJ =  0.75
+   TT =  5e-09
+   M =  0.3333
+   BV =  100
+   N =  1
+   EG =  1.11
+   XTI =  3
+   KF =  0
+   AF =  1
+   FC =  0.5
+   IBV =  0.0001
+   TNOM =  27
)

.MODEL BA484 D (
+   IS =  1.001e-16
+   RS =  0.0011
+   CJO =  1.71e-12
+   VJ =  0.75
+   TT =  5e-09
+   M =  0.3333
+   BV =  100
+   N =  1
+   EG =  1.11
+   XTI =  3
+   KF =  0
+   AF =  1
+   FC =  0.5
+   IBV =  0.0001
+   TNOM =  27
)

.MODEL BA682 D (
+   IS =  1.624e-18
+   RS =  0.0011
+   CJO =  1.837e-12
+   VJ =  0.75
+   TT =  5e-09
+   M =  0.2392
+   BV =  100
+   N =  1
+   EG =  1.11
+   XTI =  3
+   KF =  0
+   AF =  1
+   FC =  0.5
+   IBV =  0.0001
+   TNOM =  27
)

.MODEL BA683 D (
+   IS =  1.624e-18
+   RS =  0.0011
+   CJO =  1.922e-12
+   VJ =  0.75
+   TT =  5e-09
+   M =  0.2928
+   BV =  100
+   N =  1
+   EG =  1.11
+   XTI =  3
+   KF =  0
+   AF =  1
+   FC =  0.5
+   IBV =  0.0001
+   TNOM =  27
)

.MODEL BAS11 D (
+   IS =  1.13e-08
+   RS =  0.13
+   CJO =  1e-11
+   VJ =  0.75
+   TT =  5e-09
+   M =  0.4501
+   BV =  100
+   N =  1.98
+   EG =  1.11
+   XTI =  3
+   KF =  0
+   AF =  1
+   FC =  0.5
+   IBV =  0.0001
+   TNOM =  27
)

.MODEL BAS15 D (
+   IS =  9.309e-09
+   RS =  1.235
+   CJO =  1e-12
+   VJ =  0.75
+   TT =  2.595e-08
+   M =  0.3333
+   BV =  100
+   N =  2.332
+   EG =  1.11
+   XTI =  3
+   KF =  0
+   AF =  1
+   FC =  0.5
+   IBV =  0.0001
+   TNOM =  27
)

.MODEL BAS17 D (
+   IS =  9.738e-10
+   RS =  1e-06
+   CJO =  1.4e-10
+   VJ =  0.75
+   TT =  8.656e-09
+   M =  0.3333
+   BV =  100
+   N =  2
+   EG =  1.11
+   XTI =  3
+   KF =  0
+   AF =  1
+   FC =  0.5
+   IBV =  0.0001
+   TNOM =  27
)

.MODEL BAS28 D (
+   IS =  9.867e-16
+   RS =  0.0011
+   CJO =  2e-12
+   VJ =  0.75
+   TT =  8.656e-09
+   M =  0.3333
+   BV =  100
+   N =  1.4
+   EG =  1.11
+   XTI =  3
+   KF =  0
+   AF =  1
+   FC =  0.5
+   IBV =  0.0001
+   TNOM =  27
)

.MODEL BAS29 D (
+   IS =  2.372e-19
+   RS =  1.071
+   CJO =  3.5e-11
+   VJ =  0.75
+   TT =  7.213e-08
+   M =  0.3333
+   BV =  147.7
+   N =  0.7515
+   EG =  1.11
+   XTI =  3
+   KF =  0
+   AF =  1
+   FC =  0.5
+   IBV =  0.5286
+   TNOM =  27
)

.MODEL BAS31 D (
+   IS =  7.427e-06
+   RS =  0.0011
+   CJO =  2e-12
+   VJ =  0.75
+   TT =  5.771e-09
+   M =  0.3333
+   BV =  100
+   N =  4.066
+   EG =  1.11
+   XTI =  3
+   KF =  0
+   AF =  1
+   FC =  0.5
+   IBV =  0.0001
+   TNOM =  27
)

.MODEL BAS32 D (
+   IS =  9.427e-12
+   RS =  0.29
+   CJO =  2e-12
+   VJ =  0.75
+   TT =  5.771e-09
+   M =  0.3333
+   BV =  100
+   N =  1.76
+   EG =  1.11
+   XTI =  3
+   KF =  0
+   AF =  1
+   FC =  0.5
+   IBV =  0.0001
+   TNOM =  27
)

.MODEL BAS32L D (
+   IS =  7.427e-12
+   RS =  0.047
+   CJO =  2e-12
+   VJ =  0.75
+   TT =  5.771e-09
+   M =  0.3333
+   BV =  100.3
+   N =  1.7
+   EG =  1.11
+   XTI =  3
+   KF =  0
+   AF =  1
+   FC =  0.5
+   IBV =  5.173
+   TNOM =  27
)

.MODEL BAS35 D (
+   IS =  7.427e-06
+   RS =  0.0011
+   CJO =  2e-12
+   VJ =  0.75
+   TT =  5.771e-09
+   M =  0.3333
+   BV =  100
+   N =  4.066
+   EG =  1.11
+   XTI =  3
+   KF =  0
+   AF =  1
+   FC =  0.5
+   IBV =  0.0001
+   TNOM =  27
)

.MODEL BAS45 D (
+   IS =  5.9e-10
+   RS =  0.0037
+   CJO =  8e-12
+   VJ =  0.75
+   TT =  5e-09
+   M =  0.3333
+   BV =  100
+   N =  1.8
+   EG =  1.11
+   XTI =  3
+   KF =  0
+   AF =  1
+   FC =  0.5
+   IBV =  0.0001
+   TNOM =  27
)

.MODEL BAS45L D (
+   IS =  1.59e-10
+   RS =  0.4116
+   CJO =  8e-12
+   VJ =  0.75
+   TT =  5e-09
+   M =  0.3333
+   BV =  100
+   N =  1.6
+   EG =  1.11
+   XTI =  3
+   KF =  0
+   AF =  1
+   FC =  0.5
+   IBV =  0.0001
+   TNOM =  27
)

.MODEL BAS56 D (
+   IS =  3.261e-18
+   RS =  0.0011
+   CJO =  2.5e-12
+   VJ =  0.75
+   TT =  0.001
+   M =  0.3333
+   BV =  100
+   N =  1
+   EG =  1.11
+   XTI =  3
+   KF =  0
+   AF =  1
+   FC =  0.5
+   IBV =  0.0001
+   TNOM =  27
)

.MODEL BAS81 D (
+   IS =  8.3e-09
+   RS =  31.71
+   CJO =  2.122e-12
+   VJ =  0.75
+   TT =  0.001
+   M =  0.3333
+   BV =  100
+   N =  1.2
+   EG =  1.11
+   XTI =  3
+   KF =  0
+   AF =  1
+   FC =  0.5
+   IBV =  0.0001
+   TNOM =  27
)

.MODEL BAS82 D (
+   IS =  9.19e-08
+   RS =  31.2
+   CJO =  2.122e-12
+   VJ =  0.75
+   TT =  0.001
+   M =  0.3333
+   BV =  100
+   N =  1.4
+   EG =  1.11
+   XTI =  3
+   KF =  0
+   AF =  1
+   FC =  0.5
+   IBV =  0.0001
+   TNOM =  27
)

.MODEL BAS83 D (
+   IS =  5.3e-09
+   RS =  30.171
+   CJO =  2.122e-12
+   VJ =  0.75
+   TT =  0.001
+   M =  0.3333
+   BV =  100
+   N =  1.11
+   EG =  1.11
+   XTI =  3
+   KF =  0
+   AF =  1
+   FC =  0.5
+   IBV =  0.0001
+   TNOM =  27
)

.MODEL BAS85 D (
+   IS =  2.15e-07
+   RS =  3.033
+   CJO =  1.326e-11
+   VJ =  0.75
+   TT =  0.001
+   M =  0.3333
+   BV =  30.36
+   N =  1.113
+   EG =  1.11
+   XTI =  3
+   KF =  0
+   AF =  1
+   FC =  0.5
+   IBV =  10
+   TNOM =  27
)

.MODEL BAS86 D (
+   IS =  5.58e-08
+   RS =  3.644
+   CJO =  1.061e-11
+   VJ =  0.75
+   TT =  0.001
+   M =  0.3333
+   BV =  50.36
+   N =  1
+   EG =  1.11
+   XTI =  3
+   KF =  0
+   AF =  1
+   FC =  0.5
+   IBV =  10
+   TNOM =  27
)

.MODEL BAT17 D (
+   IS =  4.005e-10
+   RS =  4.11
+   CJO =  1e-12
+   VJ =  0.75
+   TT =  5e-09
+   M =  0.3333
+   BV =  4.357
+   N =  1
+   EG =  1.11
+   XTI =  3
+   KF =  0
+   AF =  1
+   FC =  0.5
+   IBV =  10
+   TNOM =  27
)

.MODEL BAT18 D (
+   IS =  1.001e-13
+   RS =  0.0011
+   CJO =  2.419e-12
+   VJ =  0.75
+   TT =  5e-09
+   M =  0.3333
+   BV =  100
+   N =  1.3
+   EG =  1.11
+   XTI =  3
+   KF =  0
+   AF =  1
+   FC =  0.5
+   IBV =  0.0001
+   TNOM =  27
)

.MODEL BAT54 D (
+   IS =  1e-20
+   RS =  7.345
+   CJO =  1.326e-11
+   VJ =  0.75
+   TT =  0.001
+   M =  0.3333
+   BV =  100
+   N =  0.2311
+   EG =  1.11
+   XTI =  3
+   KF =  0
+   AF =  1
+   FC =  0.5
+   IBV =  0.0001
+   TNOM =  27
)

.MODEL BAT54A D (
+   IS =  2.935e-12
+   RS =  6.359
+   CJO =  1.326e-11
+   VJ =  0.75
+   TT =  0.001
+   M =  0.3333
+   BV =  100
+   N =  0.5687
+   EG =  1.11
+   XTI =  3
+   KF =  0
+   AF =  1
+   FC =  0.5
+   IBV =  0.0001
+   TNOM =  27
)

.MODEL BAT54C D (
+   IS =  2.935e-12
+   RS =  6.359
+   CJO =  1.326e-11
+   VJ =  0.75
+   TT =  0.001
+   M =  0.3333
+   BV =  100
+   N =  0.5687
+   EG =  1.11
+   XTI =  3
+   KF =  0
+   AF =  1
+   FC =  0.5
+   IBV =  0.0001
+   TNOM =  27
)

.MODEL BAT54S D (
+   IS =  2.935e-12
+   RS =  6.359
+   CJO =  1.326e-11
+   VJ =  0.75
+   TT =  0.001
+   M =  0.3333
+   BV =  100
+   N =  0.5687
+   EG =  1.11
+   XTI =  3
+   KF =  0
+   AF =  1
+   FC =  0.5
+   IBV =  0.0001
+   TNOM =  27
)

.MODEL BAT74 D (
+   IS =  2.935e-12
+   RS =  6.359
+   CJO =  1.326e-11
+   VJ =  0.75
+   TT =  0.001
+   M =  0.3333
+   BV =  100
+   N =  0.5687
+   EG =  1.11
+   XTI =  3
+   KF =  0
+   AF =  1
+   FC =  0.5
+   IBV =  0.0001
+   TNOM =  27
)

.MODEL BAT81 D (
+   IS =  6.814e-09
+   RS =  25.32
+   CJO =  2.122e-12
+   VJ =  0.75
+   TT =  0.001
+   M =  0.3333
+   BV =  40.36
+   N =  1
+   EG =  1.11
+   XTI =  3
+   KF =  0
+   AF =  1
+   FC =  0.5
+   IBV =  10
+   TNOM =  27
)

.MODEL BAT82 D (
+   IS =  4e-09
+   RS =  22.001
+   CJO =  1e-12
+   VJ =  0.75
+   TT =  0.001
+   M =  0.3333
+   BV =  50.36
+   N =  1
+   EG =  1.11
+   XTI =  3
+   KF =  0
+   AF =  1
+   FC =  0.5
+   IBV =  10
+   TNOM =  27
)

.MODEL BAT83 D (
+   IS =  5e-09
+   RS =  22.95
+   CJO =  1e-12
+   VJ =  0.75
+   TT =  0.001
+   M =  0.3333
+   BV =  60.36
+   N =  1
+   EG =  1.11
+   XTI =  3
+   KF =  0
+   AF =  1
+   FC =  0.5
+   IBV =  10
+   TNOM =  27
)

.MODEL BAT85 D (
+   IS =  6.15e-08
+   RS =  3.033
+   CJO =  1.326e-11
+   VJ =  0.75
+   TT =  0.001
+   M =  0.3333
+   BV =  30.36
+   N =  1.113
+   EG =  1.11
+   XTI =  3
+   KF =  0
+   AF =  1
+   FC =  0.5
+   IBV =  10
+   TNOM =  27
)

.MODEL BAT86 D (
+   IS =  6.236e-07
+   RS =  1.5
+   CJO =  1.061e-11
+   VJ =  0.75
+   TT =  0.001
+   M =  0.3333
+   BV =  50.36
+   N =  1.4
+   EG =  1.11
+   XTI =  3
+   KF =  0
+   AF =  1
+   FC =  0.5
+   IBV =  10
+   TNOM =  27
)

.MODEL BAV10 D (
+   IS =  3.158e-11
+   RS =  0.7174
+   CJO =  2.5e-12
+   VJ =  0.75
+   TT =  8.656e-09
+   M =  0.3333
+   BV =  100
+   N =  1.467
+   EG =  1.11
+   XTI =  3
+   KF =  0
+   AF =  1
+   FC =  0.5
+   IBV =  0.0001
+   TNOM =  27
)

.MODEL BAV100 D (
+   IS =  2.361e-10
+   RS =  0.34
+   CJO =  1.5e-12
+   VJ =  0.75
+   TT =  7.213e-08
+   M =  0.3333
+   BV =  50.28
+   N =  2
+   EG =  1.11
+   XTI =  3
+   KF =  0
+   AF =  1
+   FC =  0.5
+   IBV =  5.173
+   TNOM =  27
)

.MODEL BAV101 D (
+   IS =  2.361e-11
+   RS =  0.341
+   CJO =  1.5e-12
+   VJ =  0.75
+   TT =  7.213e-08
+   M =  0.3333
+   BV =  120.3
+   N =  1.8
+   EG =  1.11
+   XTI =  3
+   KF =  0
+   AF =  1
+   FC =  0.5
+   IBV =  5.173
+   TNOM =  27
)

.MODEL BAV102 D (
+   IS =  2.361e-11
+   RS =  0.2571
+   CJO =  1.5e-12
+   VJ =  0.75
+   TT =  7.213e-08
+   M =  0.3333
+   BV =  200.3
+   N =  1.8
+   EG =  1.11
+   XTI =  3
+   KF =  0
+   AF =  1
+   FC =  0.5
+   IBV =  5.173
+   TNOM =  27
)

.MODEL BAV103 D (
+   IS =  2.361e-11
+   RS =  0.11
+   CJO =  1.5e-12
+   VJ =  0.75
+   TT =  7.213e-08
+   M =  0.3333
+   BV =  250.3
+   N =  2
+   EG =  1.11
+   XTI =  3
+   KF =  0
+   AF =  1
+   FC =  0.5
+   IBV =  5.173
+   TNOM =  27
)

.MODEL BAV105 D (
+   IS =  7.58e-11
+   RS =  0.7174
+   CJO =  2.5e-12
+   VJ =  0.75
+   TT =  8.656e-09
+   M =  0.3333
+   BV =  100
+   N =  1.467
+   EG =  1.11
+   XTI =  3
+   KF =  0
+   AF =  1
+   FC =  0.5
+   IBV =  0.0001
+   TNOM =  27
)

.MODEL BAV18 D (
+   IS =  1.624e-16
+   RS =  0.811
+   CJO =  1.5e-12
+   VJ =  0.75
+   TT =  7.213e-08
+   M =  0.3333
+   BV =  100
+   N =  1
+   EG =  1.11
+   XTI =  3
+   KF =  0
+   AF =  1
+   FC =  0.5
+   IBV =  0.0001
+   TNOM =  27
)

.MODEL BAV19 D (
+   IS =  1.624e-16
+   RS =  0.831
+   CJO =  1.5e-12
+   VJ =  0.75
+   TT =  7.213e-08
+   M =  0.3333
+   BV =  100
+   N =  1
+   EG =  1.11
+   XTI =  3
+   KF =  0
+   AF =  1
+   FC =  0.5
+   IBV =  0.0001
+   TNOM =  27
)

.MODEL BAV20 D (
+   IS =  1.624e-16
+   RS =  0.821
+   CJO =  1.5e-12
+   VJ =  0.75
+   TT =  7.213e-08
+   M =  0.3333
+   BV =  100
+   N =  1
+   EG =  1.11
+   XTI =  3
+   KF =  0
+   AF =  1
+   FC =  0.5
+   IBV =  0.0001
+   TNOM =  27
)

.MODEL BAV21 D (
+   IS =  1.624e-16
+   RS =  0.811
+   CJO =  1.5e-12
+   VJ =  0.75
+   TT =  7.213e-08
+   M =  0.3333
+   BV =  100
+   N =  1
+   EG =  1.11
+   XTI =  3
+   KF =  0
+   AF =  1
+   FC =  0.5
+   IBV =  0.0001
+   TNOM =  27
)

.MODEL BAV23 D (
+   IS =  0.0007604
+   RS =  0.0011
+   CJO =  5e-12
+   VJ =  0.75
+   TT =  7.213e-08
+   M =  0.3333
+   BV =  250.3
+   N =  4.995
+   EG =  1.11
+   XTI =  3
+   KF =  0
+   AF =  1
+   FC =  0.5
+   IBV =  5.173
+   TNOM =  27
)

.MODEL BAV45 D (
+   IS =  1.617e-19
+   RS =  0.81
+   CJO =  1.3e-12
+   VJ =  0.75
+   TT =  8.656e-07
+   M =  0.3333
+   BV =  100
+   N =  1.1
+   EG =  1.11
+   XTI =  3
+   KF =  0
+   AF =  1
+   FC =  0.5
+   IBV =  0.0001
+   TNOM =  27
)

.MODEL BAW62 D (
+   IS =  7.427e-10
+   RS =  0.847
+   CJO =  2e-12
+   VJ =  0.75
+   TT =  5.771e-09
+   M =  0.3333
+   BV =  50.28
+   N =  2
+   EG =  1.11
+   XTI =  3
+   KF =  0
+   AF =  1
+   FC =  0.5
+   IBV =  5.173
+   TNOM =  27
)

.MODEL BAX12 D (
+   IS =  2.372e-11
+   RS =  0.071
+   CJO =  1.5e-11
+   VJ =  0.75
+   TT =  7.213e-08
+   M =  0.3333
+   BV =  147.7
+   N =  1.4
+   EG =  1.11
+   XTI =  3
+   KF =  0
+   AF =  1
+   FC =  0.5
+   IBV =  0.5286
+   TNOM =  27
)

.MODEL BAX14 D (
+   IS =  3.906e-10
+   RS =  0.411
+   CJO =  2e-11
+   VJ =  0.75
+   TT =  7.213e-08
+   M =  0.3333
+   BV =  100
+   N =  2
+   EG =  1.11
+   XTI =  3
+   KF =  0
+   AF =  1
+   FC =  0.5
+   IBV =  0.0001
+   TNOM =  27
)

.MODEL BAX18 D (
+   IS =  8.389e-19
+   RS =  0.1325
+   CJO =  2e-11
+   VJ =  0.75
+   TT =  7.213e-08
+   M =  0.3333
+   BV =  100
+   N =  1
+   EG =  1.11
+   XTI =  3
+   KF =  0
+   AF =  1
+   FC =  0.5
+   IBV =  0.0001
+   TNOM =  27
)

.MODEL BAY80 D (
+   IS =  2.617e-09
+   RS =  0.6229
+   CJO =  6e-12
+   VJ =  0.75
+   TT =  7.213e-08
+   M =  0.3333
+   BV =  150.3
+   N =  1.832
+   EG =  1.11
+   XTI =  3
+   KF =  0
+   AF =  1
+   FC =  0.5
+   IBV =  5.238
+   TNOM =  27
)

.MODEL BB112 D (
+   IS =  1e-14
+   RS =  0.0011
+   CJO =  2.324e-09
+   VJ =  0.75
+   TT =  5e-09
+   M =  0.9
+   BV =  100
+   N =  1
+   EG =  1.11
+   XTI =  3
+   KF =  0
+   AF =  1
+   FC =  0.5
+   IBV =  0.0001
+   TNOM =  27
)

.MODEL BB119 D (
+   IS =  1.122e-17
+   RS =  0.0011
+   CJO =  4.163e-11
+   VJ =  0.75
+   TT =  5e-09
+   M =  0.3333
+   BV =  100
+   N =  1
+   EG =  1.11
+   XTI =  3
+   KF =  0
+   AF =  1
+   FC =  0.5
+   IBV =  0.0001
+   TNOM =  27
)

.MODEL BB130 D (
+   IS =  1e-14
+   RS =  0.0011
+   CJO =  5.563e-11
+   VJ =  0.75
+   TT =  5e-09
+   M =  0.3333
+   BV =  100
+   N =  1
+   EG =  1.11
+   XTI =  3
+   KF =  0
+   AF =  1
+   FC =  0.5
+   IBV =  0.0001
+   TNOM =  27
)

.MODEL BB204B D (
+   IS =  1e-14
+   RS =  0.0011
+   CJO =  7.783e-11
+   VJ =  0.75
+   TT =  5e-09
+   M =  0.4705
+   BV =  100
+   N =  1
+   EG =  1.11
+   XTI =  3
+   KF =  0
+   AF =  1
+   FC =  0.5
+   IBV =  0.0001
+   TNOM =  27
)

.MODEL BB204G D (
+   IS =  1e-14
+   RS =  0.0011
+   CJO =  8.431e-11
+   VJ =  0.75
+   TT =  5e-09
+   M =  0.4711
+   BV =  100
+   N =  1
+   EG =  1.11
+   XTI =  3
+   KF =  0
+   AF =  1
+   FC =  0.5
+   IBV =  0.0001
+   TNOM =  27
)

.MODEL BB212 D (
+   IS =  1e-14
+   RS =  0.0011
+   CJO =  7.202e-10
+   VJ =  10
+   TT =  5e-09
+   M =  0.9
+   BV =  100
+   N =  1
+   EG =  1.11
+   XTI =  3
+   KF =  0
+   AF =  1
+   FC =  0.5
+   IBV =  0.0001
+   TNOM =  27
)

.MODEL BB215 D (
+   IS =  1e-14
+   RS =  0.0011
+   CJO =  3.249e-11
+   VJ =  0.75
+   TT =  5e-09
+   M =  0.7646
+   BV =  100
+   N =  1
+   EG =  1.11
+   XTI =  3
+   KF =  0
+   AF =  1
+   FC =  0.5
+   IBV =  0.0001
+   TNOM =  27
)

.MODEL BB219 D (
+   IS =  1e-14
+   RS =  0.0011
+   CJO =  6.351e-11
+   VJ =  0.75
+   TT =  5e-09
+   M =  0.8465
+   BV =  100
+   N =  1
+   EG =  1.11
+   XTI =  3
+   KF =  0
+   AF =  1
+   FC =  0.5
+   IBV =  0.0001
+   TNOM =  27
)

.MODEL BB240 D (
+   IS =  1e-14
+   RS =  0.0011
+   CJO =  2.479e-08
+   VJ =  0.75
+   TT =  5e-09
+   M =  0.77
+   BV =  100
+   N =  1
+   EG =  1.11
+   XTI =  3
+   KF =  0
+   AF =  1
+   FC =  0.5
+   IBV =  0.0001
+   TNOM =  27
)

.MODEL BB241 D (
+   IS =  1e-14
+   RS =  0.0011
+   CJO =  1.049e-10
+   VJ =  0.75
+   TT =  5e-09
+   M =  0.9987
+   BV =  100
+   N =  1
+   EG =  1.11
+   XTI =  3
+   KF =  0
+   AF =  1
+   FC =  0.5
+   IBV =  0.0001
+   TNOM =  27
)

.MODEL BB249 D (
+   IS =  1e-14
+   RS =  0.0011
+   CJO =  8.387e-11
+   VJ =  0.75
+   TT =  5e-09
+   M =  0.8022
+   BV =  100
+   N =  1
+   EG =  1.11
+   XTI =  3
+   KF =  0
+   AF =  1
+   FC =  0.5
+   IBV =  0.0001
+   TNOM =  27
)

.MODEL BB405B D (
+   IS =  1e-14
+   RS =  0.0011
+   CJO =  2.673e-11
+   VJ =  1.922
+   TT =  5e-09
+   M =  0.9446
+   BV =  100
+   N =  1
+   EG =  1.11
+   XTI =  3
+   KF =  0
+   AF =  1
+   FC =  0.5
+   IBV =  0.0001
+   TNOM =  27
)

.MODEL BB417 D (
+   IS =  1e-14
+   RS =  0.0011
+   CJO =  5.329e-11
+   VJ =  0.75
+   TT =  5e-09
+   M =  0.9343
+   BV =  100
+   N =  1
+   EG =  1.11
+   XTI =  3
+   KF =  0
+   AF =  1
+   FC =  0.5
+   IBV =  0.0001
+   TNOM =  27
)

.MODEL BB515 D (
+   IS =  1e-14
+   RS =  0.0011
+   CJO =  3.412e-11
+   VJ =  0.75
+   TT =  5e-09
+   M =  0.7712
+   BV =  30.36
+   N =  1
+   EG =  1.11
+   XTI =  3
+   KF =  0
+   AF =  1
+   FC =  0.5
+   IBV =  10
+   TNOM =  27
)

.MODEL BB619 D (
+   IS =  1e-14
+   RS =  0.0011
+   CJO =  8.244e-11
+   VJ =  0.75
+   TT =  5e-09
+   M =  0.9376
+   BV =  30.36
+   N =  1
+   EG =  1.11
+   XTI =  3
+   KF =  0
+   AF =  1
+   FC =  0.5
+   IBV =  10
+   TNOM =  27
)

.MODEL BB620 D (
+   IS =  1e-14
+   RS =  0.0011
+   CJO =  1.756e-10
+   VJ =  0.75
+   TT =  5e-09
+   M =  0.9
+   BV =  30.36
+   N =  1
+   EG =  1.11
+   XTI =  3
+   KF =  0
+   AF =  1
+   FC =  0.5
+   IBV =  10
+   TNOM =  27
)

.MODEL BB804 D (
+   IS =  1e-14
+   RS =  0.0011
+   CJO =  6.9e-11
+   VJ =  0.75
+   TT =  5e-09
+   M =  0.3333
+   BV =  30.36
+   N =  1
+   EG =  1.11
+   XTI =  3
+   KF =  0
+   AF =  1
+   FC =  0.5
+   IBV =  10
+   TNOM =  27
)

.MODEL BB809 D (
+   IS =  1e-14
+   RS =  0.0011
+   CJO =  8.387e-11
+   VJ =  0.75
+   TT =  5e-09
+   M =  0.8022
+   BV =  30.36
+   N =  1
+   EG =  1.11
+   XTI =  3
+   KF =  0
+   AF =  1
+   FC =  0.5
+   IBV =  10
+   TNOM =  27
)

.MODEL BB811 D (
+   IS =  1e-14
+   RS =  0.0011
+   CJO =  1.687e-11
+   VJ =  0.75
+   TT =  5e-09
+   M =  0.7681
+   BV =  30.36
+   N =  1
+   EG =  1.11
+   XTI =  3
+   KF =  0
+   AF =  1
+   FC =  0.5
+   IBV =  10
+   TNOM =  27
)

.MODEL BB909A D (
+   IS =  1e-14
+   RS =  0.0011
+   CJO =  3.725e-11
+   VJ =  10
+   TT =  5e-09
+   M =  0.9
+   BV =  100
+   N =  1
+   EG =  1.11
+   XTI =  3
+   KF =  0
+   AF =  1
+   FC =  0.5
+   IBV =  0.0001
+   TNOM =  27
)

.MODEL BB909B D (
+   IS =  1e-14
+   RS =  0.0011
+   CJO =  4.028e-11
+   VJ =  10
+   TT =  5e-09
+   M =  0.9
+   BV =  100
+   N =  1
+   EG =  1.11
+   XTI =  3
+   KF =  0
+   AF =  1
+   FC =  0.5
+   IBV =  0.0001
+   TNOM =  27
)

.MODEL BB910 D (
+   IS =  1e-14
+   RS =  0.0011
+   CJO =  5.92e-11
+   VJ =  0.75
+   TT =  5e-09
+   M =  0.8679
+   BV =  100
+   N =  1
+   EG =  1.11
+   XTI =  3
+   KF =  0
+   AF =  1
+   FC =  0.5
+   IBV =  0.0001
+   TNOM =  27
)

.MODEL BB911 D (
+   IS =  1e-14
+   RS =  0.0011
+   CJO =  1.049e-10
+   VJ =  0.75
+   TT =  5e-09
+   M =  0.9987
+   BV =  100
+   N =  1
+   EG =  1.11
+   XTI =  3
+   KF =  0
+   AF =  1
+   FC =  0.5
+   IBV =  0.0001
+   TNOM =  27
)

.MODEL BBY39 D (
+   IS =  1e-14
+   RS =  0.0011
+   CJO =  3.484e-11
+   VJ =  0.75
+   TT =  5e-09
+   M =  0.8126
+   BV =  100
+   N =  1
+   EG =  1.11
+   XTI =  3
+   KF =  0
+   AF =  1
+   FC =  0.5
+   IBV =  0.0001
+   TNOM =  27
)

.MODEL BBY42 D (
+   IS =  1e-14
+   RS =  0.0011
+   CJO =  3.736e-11
+   VJ =  10
+   TT =  5e-09
+   M =  1.802
+   BV =  100
+   N =  1
+   EG =  1.11
+   XTI =  3
+   KF =  0
+   AF =  1
+   FC =  0.5
+   IBV =  0.0001
+   TNOM =  27
)

.MODEL BBY62 D (
+   IS =  1e-14
+   RS =  0.0011
+   CJO =  2.589e-11
+   VJ =  0.75
+   TT =  5e-09
+   M =  0.4622
+   BV =  100
+   N =  1
+   EG =  1.11
+   XTI =  3
+   KF =  0
+   AF =  1
+   FC =  0.5
+   IBV =  0.0001
+   TNOM =  27
)

.MODEL BY228 D (
+   IS =  1.001e-20
+   RS =  0.0841
+   CJO =  1e-12
+   VJ =  0.75
+   TT =  5e-09
+   M =  0.3333
+   BV =  100
+   N =  1
+   EG =  1.11
+   XTI =  3
+   KF =  0
+   AF =  1
+   FC =  0.5
+   IBV =  0.0001
+   TNOM =  27
)

.MODEL BY328 D (
+   IS =  1.187e-16
+   RS =  0.0877
+   CJO =  1e-12
+   VJ =  0.75
+   TT =  5e-09
+   M =  0.3333
+   BV =  100
+   N =  1
+   EG =  1.11
+   XTI =  3
+   KF =  0
+   AF =  1
+   FC =  0.5
+   IBV =  0.0001
+   TNOM =  27
)

.MODEL BY438 D (
+   IS =  1.001e-19
+   RS =  0.0751
+   CJO =  1e-12
+   VJ =  0.75
+   TT =  5e-09
+   M =  0.3333
+   BV =  100
+   N =  1
+   EG =  1.11
+   XTI =  3
+   KF =  0
+   AF =  1
+   FC =  0.5
+   IBV =  0.0001
+   TNOM =  27
)

.MODEL BY448 D (
+   IS =  1.001e-19
+   RS =  0.0981
+   CJO =  1e-12
+   VJ =  0.75
+   TT =  5e-09
+   M =  0.3333
+   BV =  100
+   N =  1.1
+   EG =  1.11
+   XTI =  3
+   KF =  0
+   AF =  1
+   FC =  0.5
+   IBV =  0.0001
+   TNOM =  27
)

.MODEL BY458 D (
+   IS =  1.001e-19
+   RS =  0.0781
+   CJO =  1e-12
+   VJ =  0.75
+   TT =  5e-09
+   M =  0.3333
+   BV =  100
+   N =  1.1
+   EG =  1.11
+   XTI =  3
+   KF =  0
+   AF =  1
+   FC =  0.5
+   IBV =  0.0001
+   TNOM =  27
)

.MODEL BY505 D (
+   IS =  3.477e-20
+   RS =  98
+   CJO =  1e-12
+   VJ =  0.75
+   TT =  8.341e-08
+   M =  0.3333
+   BV =  100
+   N =  2
+   EG =  1.11
+   XTI =  3
+   KF =  0
+   AF =  1
+   FC =  0.5
+   IBV =  0.0001
+   TNOM =  27
)

.MODEL BY527 D (
+   IS =  4.397e-09
+   RS =  0.0581
+   CJO =  5e-11
+   VJ =  0.75
+   TT =  3.248e-05
+   M =  0.3333
+   BV =  1250
+   N =  2
+   EG =  1.11
+   XTI =  3
+   KF =  0
+   AF =  1
+   FC =  0.5
+   IBV =  5.173
+   TNOM =  27
)

.MODEL BY584 D (
+   IS =  1e-20
+   RS =  98.85
+   CJO =  1e-12
+   VJ =  0.75
+   TT =  3.248e-05
+   M =  0.3333
+   BV =  100
+   N =  2
+   EG =  1.11
+   XTI =  3
+   KF =  0
+   AF =  1
+   FC =  0.5
+   IBV =  0.0001
+   TNOM =  27
)

.MODEL BY627 D (
+   IS =  1.001e-19
+   RS =  0.0411
+   CJO =  5e-11
+   VJ =  0.75
+   TT =  5e-09
+   M =  0.3333
+   BV =  1250
+   N =  1.1
+   EG =  1.11
+   XTI =  3
+   KF =  0
+   AF =  1
+   FC =  0.5
+   IBV =  5.173
+   TNOM =  27
)

.MODEL BY705 D (
+   IS =  1.001e-20
+   RS =  325
+   CJO =  1e-12
+   VJ =  0.75
+   TT =  4.334e-08
+   M =  0.3333
+   BV =  100
+   N =  2
+   EG =  1.11
+   XTI =  3
+   KF =  0
+   AF =  1
+   FC =  0.5
+   IBV =  0.0001
+   TNOM =  27
)

.MODEL BY706 D (
+   IS =  4.001e-06
+   RS =  324
+   CJO =  1e-12
+   VJ =  0.75
+   TT =  4.334e-08
+   M =  0.3333
+   BV =  100
+   N =  2
+   EG =  1.11
+   XTI =  3
+   KF =  0
+   AF =  1
+   FC =  0.5
+   IBV =  0.0001
+   TNOM =  27
)

.MODEL BY710 D (
+   IS =  4.001e-06
+   RS =  1252
+   CJO =  1e-12
+   VJ =  0.75
+   TT =  1.92e-08
+   M =  0.3333
+   BV =  100
+   N =  2
+   EG =  1.11
+   XTI =  3
+   KF =  0
+   AF =  1
+   FC =  0.5
+   IBV =  0.0001
+   TNOM =  27
)

.MODEL BY711 D (
+   IS =  1.001e-06
+   RS =  1250
+   CJO =  1e-12
+   VJ =  0.75
+   TT =  1.92e-08
+   M =  0.3333
+   BV =  100
+   N =  2
+   EG =  1.11
+   XTI =  3
+   KF =  0
+   AF =  1
+   FC =  0.5
+   IBV =  0.0001
+   TNOM =  27
)

.MODEL BY712 D (
+   IS =  1.001e-06
+   RS =  1568
+   CJO =  1e-12
+   VJ =  0.75
+   TT =  1.92e-08
+   M =  0.3333
+   BV =  100
+   N =  2
+   EG =  1.11
+   XTI =  3
+   KF =  0
+   AF =  1
+   FC =  0.5
+   IBV =  0.0001
+   TNOM =  27
)

.MODEL BY713 D (
+   IS =  1.001e-06
+   RS =  1567
+   CJO =  1e-12
+   VJ =  0.75
+   TT =  1.92e-08
+   M =  0.3333
+   BV =  100
+   N =  2
+   EG =  1.11
+   XTI =  3
+   KF =  0
+   AF =  1
+   FC =  0.5
+   IBV =  0.0001
+   TNOM =  27
)

.MODEL BY714 D (
+   IS =  1.001e-06
+   RS =  1568
+   CJO =  1e-12
+   VJ =  0.75
+   TT =  1.92e-08
+   M =  0.3333
+   BV =  100
+   N =  2
+   EG =  1.11
+   XTI =  3
+   KF =  0
+   AF =  1
+   FC =  0.5
+   IBV =  0.0001
+   TNOM =  27
)

.MODEL BY715 D (
+   IS =  9.99e-06
+   RS =  386
+   CJO =  1e-12
+   VJ =  0.75
+   TT =  9.602e-09
+   M =  0.3333
+   BV =  100
+   N =  1.2
+   EG =  1.11
+   XTI =  3
+   KF =  0
+   AF =  1
+   FC =  0.5
+   IBV =  0.0001
+   TNOM =  27
)

.MODEL BY716 D (
+   IS =  8.99e-06
+   RS =  389
+   CJO =  1e-12
+   VJ =  0.75
+   TT =  9.602e-09
+   M =  0.3333
+   BV =  100
+   N =  1.2
+   EG =  1.11
+   XTI =  3
+   KF =  0
+   AF =  1
+   FC =  0.5
+   IBV =  0.0001
+   TNOM =  27
)

.MODEL BY717 D (
+   IS =  1e-20
+   RS =  1040
+   CJO =  1e-12
+   VJ =  0.75
+   TT =  9.602e-09
+   M =  0.3333
+   BV =  100
+   N =  2
+   EG =  1.11
+   XTI =  3
+   KF =  0
+   AF =  1
+   FC =  0.5
+   IBV =  0.0001
+   TNOM =  27
)

.MODEL BY718 D (
+   IS =  1e-06
+   RS =  1045
+   CJO =  1e-12
+   VJ =  0.75
+   TT =  9.602e-09
+   M =  0.3333
+   BV =  100
+   N =  2
+   EG =  1.11
+   XTI =  3
+   KF =  0
+   AF =  1
+   FC =  0.5
+   IBV =  0.0001
+   TNOM =  27
)

.MODEL BY719 D (
+   IS =  1e-06
+   RS =  1038
+   CJO =  1e-12
+   VJ =  0.75
+   TT =  9.602e-09
+   M =  0.3333
+   BV =  100
+   N =  2
+   EG =  1.11
+   XTI =  3
+   KF =  0
+   AF =  1
+   FC =  0.5
+   IBV =  0.0001
+   TNOM =  27
)

.MODEL BY720 D (
+   IS =  1e-06
+   RS =  1434
+   CJO =  1e-12
+   VJ =  0.75
+   TT =  9.602e-09
+   M =  0.3333
+   BV =  100
+   N =  1.9
+   EG =  1.11
+   XTI =  3
+   KF =  0
+   AF =  1
+   FC =  0.5
+   IBV =  0.0001
+   TNOM =  27
)

.MODEL BY721 D (
+   IS =  1e+06
+   RS =  1434
+   CJO =  1e-12
+   VJ =  0.75
+   TT =  9.602e-09
+   M =  0.3333
+   BV =  100
+   N =  1.8
+   EG =  1.11
+   XTI =  3
+   KF =  0
+   AF =  1
+   FC =  0.5
+   IBV =  0.0001
+   TNOM =  27
)

.MODEL BY722 D (
+   IS =  1e-06
+   RS =  1570
+   CJO =  1e-12
+   VJ =  0.75
+   TT =  9.602e-09
+   M =  0.3333
+   BV =  100
+   N =  2
+   EG =  1.11
+   XTI =  3
+   KF =  0
+   AF =  1
+   FC =  0.5
+   IBV =  0.0001
+   TNOM =  27
)

.MODEL BY723 D (
+   IS =  1e-06
+   RS =  2420
+   CJO =  1e-12
+   VJ =  0.75
+   TT =  9.602e-09
+   M =  0.3333
+   BV =  100
+   N =  2
+   EG =  1.11
+   XTI =  3
+   KF =  0
+   AF =  1
+   FC =  0.5
+   IBV =  0.0001
+   TNOM =  27
)

.MODEL BYD11 D (
+   IS =  2.117e-19
+   RS =  0.124
+   CJO =  1.4e-11
+   VJ =  0.75
+   TT =  5e-09
+   M =  0.3333
+   BV =  1600
+   N =  1.1
+   EG =  1.11
+   XTI =  3
+   KF =  0
+   AF =  1
+   FC =  0.5
+   IBV =  5.173
+   TNOM =  27
)

.MODEL BYD11D D (
+   IS =  8.117e-19
+   RS =  0.124
+   CJO =  1.4e-11
+   VJ =  0.75
+   TT =  5e-09
+   M =  0.3333
+   BV =  225.3
+   N =  1.1
+   EG =  1.11
+   XTI =  3
+   KF =  0
+   AF =  1
+   FC =  0.5
+   IBV =  5.173
+   TNOM =  27
)

.MODEL BYD11G D (
+   IS =  8.117e-19
+   RS =  0.124
+   CJO =  1.4e-11
+   VJ =  0.75
+   TT =  5e-09
+   M =  0.3333
+   BV =  450.3
+   N =  1.1
+   EG =  1.11
+   XTI =  3
+   KF =  0
+   AF =  1
+   FC =  0.5
+   IBV =  5.173
+   TNOM =  27
)

.MODEL BYD11J D (
+   IS =  8.117e-19
+   RS =  0.124
+   CJO =  1.4e-11
+   VJ =  0.75
+   TT =  5e-09
+   M =  0.3333
+   BV =  650.3
+   N =  1.1
+   EG =  1.11
+   XTI =  3
+   KF =  0
+   AF =  1
+   FC =  0.5
+   IBV =  5.173
+   TNOM =  27
)

.MODEL BYD11K D (
+   IS =  8.117e-19
+   RS =  0.124
+   CJO =  1.4e-11
+   VJ =  0.75
+   TT =  5e-09
+   M =  0.3333
+   BV =  900.3
+   N =  1.1
+   EG =  1.11
+   XTI =  3
+   KF =  0
+   AF =  1
+   FC =  0.5
+   IBV =  5.173
+   TNOM =  27
)

.MODEL BYD11M D (
+   IS =  8.117e-19
+   RS =  0.124
+   CJO =  1.4e-11
+   VJ =  0.75
+   TT =  5e-09
+   M =  0.3333
+   BV =  1100
+   N =  1.1
+   EG =  1.11
+   XTI =  3
+   KF =  0
+   AF =  1
+   FC =  0.5
+   IBV =  5.173
+   TNOM =  27
)
