*       COPYRIGHT    Zetex Spice Model Library 2V0
*                      (Last Revision Sept./95)
*
*
*
*   ZETEX  BAL74   Spice Model        Last revision 24/8/92
*
.MODEL BAL74 D IS=4.739E-9 N=1.849 RS=.4418 XTI=3 
+      EG=1.11 BV=99.08 IBV=25.88E-3 TT=2.02E-9
*
*      FOR LATER VERSIONS OF SPICE:-  SET RS=.4318 AND ADD
*    + ISR=4.04E-9 NR=2.236 IKF=3.373
*
*   NOTES: FOR RF OPERATION ADD PACKAGE INDUCTANCE 0F 2.5E-9H AND 
*          PARALLEL CAPACITANCE OF 0.95E-12F.
*
*
*   ZETEX  BAL99    Spice Model        Last revision 21/8/92
*
.MODEL BAL99 D IS=4.858E-9 N=2.038 RS=1.898 XTI=3 
+      EG=1.11 BV=164.1 IBV=12.94E-3 TT=4.184E-9
*
*      FOR LATER VERSIONS OF SPICE:-  SET RS=1.238 AND ADD
*    + ISR=7.937E-9 NR=2.113 IKF=22.89E-3
*
*   NOTES: FOR RF OPERATION ADD PACKAGE INDUCTANCE 0F 2.5E-9H AND 
*   PARALLEL CAPACITANCE OF 0.51E-12F.
*
*   ZETEX  BAR74   Spice Model        Last revision 24/8/92
*
.MODEL BAR74 D IS=4.739E-9 N=1.849 RS=.4418 XTI=3 
+      EG=1.11 BV=99.08 IBV=25.88E-3 TT=2.02E-9
*
*      FOR LATER VERSIONS OF SPICE:-  SET RS=.4318 AND ADD
*    + ISR=4.04E-9 NR=2.236 IKF=3.373
*
*   NOTES: FOR RF OPERATION ADD PACKAGE INDUCTANCE 0F 2.5E-9H AND 
*          PARALLEL CAPACITANCE OF 0.95E-12F.
*
*
*   ZETEX  BAR99    Spice Model        Last revision 21/8/92
*
.MODEL BAR99 D IS=4.858E-9 N=2.038 RS=1.898 XTI=3 
+      EG=1.11 BV=164.1 IBV=12.94E-3 TT=4.184E-9
*
*      FOR LATER VERSIONS OF SPICE:-  SET RS=1.238 AND ADD
*    + ISR=7.937E-9 NR=2.113 IKF=22.89E-3
*
*   NOTES: FOR RF OPERATION ADD PACKAGE INDUCTANCE 0F 2.5E-9H AND 
*   PARALLEL CAPACITANCE OF 0.51E-12F.
*
*   ZETEX  BAS16  Spice Model        Last revision 24/8/92
*
.MODEL BAS16 D IS=1.795E-9 N=1.874 RS=1.263 XTI=3 
+      EG=1.11 BV=153.1 IBV=17.26E-3 TT=7.358E-9
*
*      FOR LATER VERSIONS OF SPICE:-  SET RS=1.173 AND ADD
*    + ISR=1.086E-9 NR=2.955 IKF=2.726
*
*   NOTES: FOR RF OPERATION ADD PACKAGE INDUCTANCE 0F 2.5E-9H AND 
*          PARALLEL CAPACITANCE OF 0.555E-12F.
*
*
*   ZETEX  BAS19    Spice Model        Last revision 21/8/92
*
.MODEL BAS19 D IS=8.402E-9 N=2.011 RS=.5125 XTI=3
+      EG=1.11 BV=435 IBV=4.139E-3 TT=41.84E-9
*
*      FOR LATER VERSIONS OF SPICE:-  SET RS=.3215 AND ADD
*      + ISR=3.853E-9 NR=2.222 IKF=.1155
*
*   NOTE: FOR RF OPERATION ADD PACKAGE INDUCTANCE OF 2.5E-9H AND
*         PARALLEL CAPACITANCE OF 0.55E-12F. 
*
*
*   ZETEX  BAS20    Spice Model        Last revision 21/8/92
*
.MODEL BAS20 D IS=8.402E-9 N=2.011 RS=.5125 XTI=3
+      EG=1.11 BV=435 IBV=4.139E-3 TT=41.84E-9
*
*      FOR LATER VERSIONS OF SPICE:-  SET RS=.3215 AND ADD
*      + ISR=3.853E-9 NR=2.222 IKF=.1155
*
*   NOTE: FOR RF OPERATION ADD PACKAGE INDUCTANCE OF 2.5E-9H AND
*         PARALLEL CAPACITANCE OF 0.55E-12F. 
*
*
*   ZETEX  BAS21    Spice Model        Last revision 21/8/92
*
.MODEL BAS21 D IS=8.402E-9 N=2.011 RS=.5125 XTI=3
+      EG=1.11 BV=435 IBV=4.139E-3 TT=41.84E-9
*
*      FOR LATER VERSIONS OF SPICE:-  SET RS=.3215 AND ADD
*      + ISR=3.853E-9 NR=2.222 IKF=.1155
*
*   NOTE: FOR RF OPERATION ADD PACKAGE INDUCTANCE OF 2.5E-9H AND
*         PARALLEL CAPACITANCE OF 0.55E-12F. 
*
*
*   ZETEX  BAV70   Spice Model        Last revision 21/8/92
*
.MODEL BAV70 D IS=4.856E-9 N=2.01 RS=1.358 XTI=3 
+      EG=1.11 BV=162 IBV=2.587E-3 TT=4.184E-9
*
*      FOR LATER VERSIONS OF SPICE:-  SET RS=.908 AND ADD
*    + ISR=2.032E-18 NR=6.974 IKF=44.08E-3
*
*   NOTE: FOR RF OPERATION ADD PACKAGE INDUCTANCE OF 2.5E-9H AND
*         PARALLEL CAPACITANCE OF 0.35E-12F. 
*
*
*   ZETEX  BAV74   Spice Model        Last revision 24/8/92
*
.MODEL BAV74 D IS=4.739E-9 N=1.849 RS=.4418 XTI=3 
+      EG=1.11 BV=99.08 IBV=25.88E-3 TT=2.02E-9
*
*      FOR LATER VERSIONS OF SPICE:-  SET RS=.4318 AND ADD
*    + ISR=4.04E-9 NR=2.236 IKF=3.373
*
*   NOTES: FOR RF OPERATION ADD PACKAGE INDUCTANCE 0F 2.5E-9H AND 
*          PARALLEL CAPACITANCE OF 0.95E-12F.
*
*
*   ZETEX  BAV99    Spice Model        Last revision 21/8/92
*
.MODEL BAV99 D IS=4.858E-9 N=2.038 RS=1.898 XTI=3 
+      EG=1.11 BV=164.1 IBV=12.94E-3 TT=4.184E-9
*
*      FOR LATER VERSIONS OF SPICE:-  SET RS=1.238 AND ADD
*    + ISR=7.937E-9 NR=2.113 IKF=22.89E-3
*
*   NOTES: FOR RF OPERATION ADD PACKAGE INDUCTANCE 0F 2.5E-9H AND 
*   PARALLEL CAPACITANCE OF 0.51E-12F.
*
*   ZETEX  BAW56    Spice Model        Last revision 21/8/92
*
.MODEL BAW56 D IS=4.858E-9 N=2.038 RS=1.898 XTI=3 
+      EG=1.11 BV=164.1 IBV=12.94E-3 TT=4.184E-9
*
*      FOR LATER VERSIONS OF SPICE:-  SET RS=1.238 AND ADD
*    + ISR=7.937E-9 NR=2.113 IKF=22.89E-3
*
*   NOTES: FOR RF OPERATION ADD PACKAGE INDUCTANCE 0F 2.5E-9H AND 
*   PARALLEL CAPACITANCE OF 0.51E-12F.
*
*   ZETEX  BBY31  Spice Model        Last revision 18/8/92
*
.MODEL BBY31 D IS=10.01E-15 N=1.095 RS=.2082 XTI=3 
+      EG=1.11 CJO=27.36E-12 M=1.001 VJ=2.099 FC=.5 BV=45.12 
+      IBV=92.44E-3 TT=145.7E-9
*
*    + ISR=7.447E-12 NR=2.334 IKF=10.15 (LATER SPICE VERSIONS ONLY)
*
*NOTES: FOR RF OPERATION ADD PACKAGE INDUCTANCE OF 2.5E-9H AND SET
*  RS=0.60 FOR 2V, 0.53 FOR 5V, 0.45 FOR 10V OR 0.39 FOR 20V BIAS.
*
*   ZETEX  BBY40  Spice Model        Last revision 18/8/92
*
.MODEL BBY40 D IS=7.417E-15 N=1.058 RS=.1259 XTI=3 
+      EG=1.11 CJO=64.39E-12 M=1.013 VJ=2.566 FC=.5 BV=45.12 
+      IBV=.1232 TT=215E-9
*
*    + ISR=1.731E-12 NR=2.27 IKF 9.882 (LATER SPICE VERSIONS ONLY)
*
*NOTES: FOR RF OPERATION ADD PACKAGE INDUCTANCE OF 2.5E-9H AND SET
*  RS=0.47 FOR 2V, 0.39 FOR 5V, 0.32 FOR 10V OR 0.28 FOR 20V BIAS.
*
*   ZETEX  FMMD2835    Spice Model        Last revision 21/8/92
*
.MODEL FMMD2835 D IS=4.858E-9 N=2.038 RS=1.898 XTI=3 
+      EG=1.11 BV=164.1 IBV=12.94E-3 TT=4.184E-9
*
*      FOR LATER VERSIONS OF SPICE:-  SET RS=1.238 AND ADD
*    + ISR=7.937E-9 NR=2.113 IKF=22.89E-3
*
*   NOTES: FOR RF OPERATION ADD PACKAGE INDUCTANCE 0F 2.5E-9H AND 
*   PARALLEL CAPACITANCE OF 0.51E-12F.
*
*   ZETEX  FMMD2836    Spice Model        Last revision 21/8/92
*
.MODEL FMMD2836 D IS=4.858E-9 N=2.038 RS=1.898 XTI=3 
+      EG=1.11 BV=164.1 IBV=12.94E-3 TT=4.184E-9
*
*      FOR LATER VERSIONS OF SPICE:-  SET RS=1.238 AND ADD
*    + ISR=7.937E-9 NR=2.113 IKF=22.89E-3
*
*   NOTES: FOR RF OPERATION ADD PACKAGE INDUCTANCE 0F 2.5E-9H AND 
*   PARALLEL CAPACITANCE OF 0.51E-12F.
*
*   ZETEX  FMMD2837   Spice Model        Last revision 21/8/92
*
.MODEL FMMD2837 D IS=4.856E-9 N=2.01 RS=1.358 XTI=3 
+      EG=1.11 BV=162 IBV=2.587E-3 TT=4.184E-9
*
*      FOR LATER VERSIONS OF SPICE:-  SET RS=.908 AND ADD
*    + ISR=2.032E-18 NR=6.974 IKF=44.08E-3
*
*   NOTE: FOR RF OPERATION ADD PACKAGE INDUCTANCE OF 2.5E-9H AND
*         PARALLEL CAPACITANCE OF 0.35E-12F. 
*
*
*   ZETEX  FMMD2838   Spice Model        Last revision 21/8/92
*
.MODEL FMMD2838 D IS=4.856E-9 N=2.01 RS=1.358 XTI=3 
+      EG=1.11 BV=162 IBV=2.587E-3 TT=4.184E-9
*
*      FOR LATER VERSIONS OF SPICE:-  SET RS=.908 AND ADD
*    + ISR=2.032E-18 NR=6.974 IKF=44.08E-3
*
*   NOTE: FOR RF OPERATION ADD PACKAGE INDUCTANCE OF 2.5E-9H AND
*         PARALLEL CAPACITANCE OF 0.35E-12F. 
*
*
*   ZETEX  FMMD6050  Spice Model        Last revision 24/8/92
*
.MODEL FMMD6050 D IS=1.795E-9 N=1.874 RS=1.263 XTI=3 
+      EG=1.11 BV=153.1 IBV=17.26E-3 TT=7.358E-9
*
*      FOR LATER VERSIONS OF SPICE:-  SET RS=1.173 AND ADD
*    + ISR=1.086E-9 NR=2.955 IKF=2.726
*
*   NOTES: FOR RF OPERATION ADD PACKAGE INDUCTANCE 0F 2.5E-9H AND 
*          PARALLEL CAPACITANCE OF 0.555E-12F.
*
*
*   ZETEX  FMMD6100   Spice Model        Last revision 24/8/92
*
.MODEL FMMD6100 D IS=4.739E-9 N=1.849 RS=.4418 XTI=3 
+      EG=1.11 BV=99.08 IBV=25.88E-3 TT=2.02E-9
*
*      FOR LATER VERSIONS OF SPICE:-  SET RS=.4318 AND ADD
*    + ISR=4.04E-9 NR=2.236 IKF=3.373
*
*   NOTES: FOR RF OPERATION ADD PACKAGE INDUCTANCE 0F 2.5E-9H AND 
*          PARALLEL CAPACITANCE OF 0.95E-12F.
*
*
*   ZETEX  FMMD7000  Spice Model        Last revision 24/8/92
*
.MODEL FMMD7000 D IS=1.795E-9 N=1.874 RS=1.263 XTI=3 
+      EG=1.11 BV=153.1 IBV=17.26E-3 TT=7.358E-9
*
*      FOR LATER VERSIONS OF SPICE:-  SET RS=1.173 AND ADD
*    + ISR=1.086E-9 NR=2.955 IKF=2.726
*
*   NOTES: FOR RF OPERATION ADD PACKAGE INDUCTANCE 0F 2.5E-9H AND 
*          PARALLEL CAPACITANCE OF 0.555E-12F.
*
*
*   ZETEX  FMMD914    Spice Model        Last revision 21/8/92
*
.MODEL FMMD914 D IS=4.858E-9 N=2.038 RS=1.898 XTI=3 
+      EG=1.11 BV=164.1 IBV=12.94E-3 TT=4.184E-9
*
*      FOR LATER VERSIONS OF SPICE:-  SET RS=1.238 AND ADD
*    + ISR=7.937E-9 NR=2.113 IKF=22.89E-3
*
*   NOTES: FOR RF OPERATION ADD PACKAGE INDUCTANCE 0F 2.5E-9H AND 
*   PARALLEL CAPACITANCE OF 0.51E-12F.
*
*   ZETEX  FMMV105G  Spice Model        Last revision 18/8/92
*
.MODEL FMMV105G D IS=10.01E-15 N=1.095 RS=.2082 XTI=3 
+      EG=1.11 CJO=27.36E-12 M=1.001 VJ=2.099 FC=.5 BV=45.12 
+      IBV=92.44E-3 TT=145.7E-9
*
*    + ISR=7.447E-12 NR=2.334 IKF=10.15 (LATER SPICE VERSIONS ONLY)
*
*NOTES: FOR RF OPERATION ADD PACKAGE INDUCTANCE OF 2.5E-9H AND SET
*  RS=0.60 FOR 2V, 0.53 FOR 5V, 0.45 FOR 10V OR 0.39 FOR 20V BIAS.
*
*   ZETEX  FMMV109  Spice Model        Last revision 18/8/92
*
.MODEL FMMV109 D IS=7.312E-15 N=1.055 RS=.1524 XTI=3 
+      EG=1.11 CJO=61.3E-12 M=1.016 VJ=2.659 FC=.5 BV=45.13 
+      IBV=.1294 TT=196.2E-9
*
*    + ISR=2.266E-12 NR=1.994 IKF=10.18 (LATER SPICE VERSIONS ONLY)
*
*NOTES: FOR RF OPERATION ADD PACKAGE INDUCTANCE OF 2.5E-9H AND SET
*  RS=0.47 FOR 2V, 0.39 FOR 5V, 0.32 FOR 10V OR 0.28 FOR 20V BIAS.
*
*   ZETEX  FMMV2101  Spice Model        Last revision 18/8/92 
*
.MODEL FMMV2101  D IS=3.32E-15 N=1.085 RS=.25 XTI=3 
+      EG=1.11 CJO=13.85E-12 M=.4339 VJ=.8269 FC=.5 BV=45.12 
+      IBV=.1126 TT=150E-9
*
*    + ISR=500E-15 NR=2 IKF=9.5 (LATER SPICE VERSIONS ONLY)
*
*NOTES: FOR RF OPERATION ADD PACKAGE INDUCTANCE OF 2.5E-9H 
*       AND SET RS=0.42 FOR 3V TUNING BIAS.
*
*   ZETEX  FMMV2102  Spice Model        Last revision 18/8/92
*
.MODEL FMMV2102 D IS=8.441E-15 N=1.087 RS=.233 XTI=3 
+      EG=1.11 CJO=17.88E-12 M=.424 VJ=.7266 FC=.5 BV=45.13 
+      IBV=.1295 TT=164.5E-9
*
*    + ISR=8.99E-12 NR=2.392 IKF=9.564 (LATER SPICE VERSIONS ONLY)
*
*NOTES: FOR RF OPERATION ADD PACKAGE INDUCTANCE OF 2.5E-9H 
*       AND SET RS=0.39 FOR 3V TUNING BIAS.
*
*   ZETEX  FMMV2103  Spice Model        Last revision 18/8/92
*
.MODEL FMMV2103 D IS=5.907E-15 N=1.085 RS=.1367 XTI=3
+      EG=1.11 CJO=22.71E-12 M=.4357 Vj=.7114 FC=.5 BV=45.13
+      IBV=.1618 TT=238E-9
*
* + ISR=1.173E-12 NR=2.106 IKF=9.582 (LATER SPICE VERSIONS ONLY)
*
*NOTES: FOR RF OPERATION ADD PACKAGE INDUCTANCE OF 2.5E-9H
*       AND SET RS=0.36 FOR 3V TUNING BIAS.
*
*   ZETEX  FMMV2104  Spice Model        Last revision 18/8/92
*
.MODEL FMMV2104 D IS=7.4E-15 N=1.085 RS=.118 XTI=3 
+      EG=1.11 CJO=27.27E-12 M=.4339 VJ=.6962 FC=.5 BV=45.13 
+      IBV=.1849 TT=281.3E-9
*
*    + ISR=1E-12 NR=2 IKF=9.6 (LATER SPICE VERSIONS ONLY)
*
*NOTES: FOR RF OPERATION ADD PACKAGE INDUCTANCE OF 2.5E-9H
*       AND SET RS=0.33 FOR 3V TUNING BIAS.
*
*   ZETEX  FMMV2105  Spice Model        Last revision 18/8/92
*
.MODEL FMMV2105 D IS=13.11E-15 N=1.099 RS=.1097 XTI=3 
+      EG=1.11 CJO=33.46E-12 M=.4321 Vj=.6582 FC=.5 BV=45.14 
+      IBV=.1991 TT=379.4E-9
*
*    + ISR=1.261E-12 NR=1.973 IKF=9.623 (LATER SPICE VERSIONS ONLY)
*
*NOTES: FOR RF OPERATION ADD PACKAGE INDUCTANCE OF 2.5E-9H 
*       AND SET RS=0.29 FOR 3V TUNING BIAS.
*
*   ZETEX  FMMV2106  Spice Model        Last revision 18/8/92
*
.MODEL FMMV2106 D IS=5.579E-15 N=1.058 RS=.1065 XTI=3 
+      EG=1.11 CJO=40.39E-12 M=.4257 Vj=.7055 FC=.5 BV=45.14 
+      IBV=.2157 TT=209.2E-9
*
*    + ISR=793.5E-15 NR=1.985 IKF=9.593 (LATER SPICE VERSIONS ONLY)
*
*NOTES: FOR RF OPERATION ADD PACKAGE INDUCTANCE OF 2.5E-9H 
*       AND SET RS=0.28 FOR 3V TUNING BIAS.
*
*   ZETEX  FMMV2107  Spice Model        Last revision 18/8/92
*
.MODEL FMMV2107 D IS=10.03E-15 N=1.08 RS=.1359 XTI=3 
+      EG=1.11 CJO=50.36E-12 M=.4277 VJ=.6509 FC=.5 BV=45.14 
+      IBV=.2354 TT=429.9E-9
*
*    + ISR=1.661E-12 NR=2.14 IKF=9.949 (LATER SPICE VERSIONS ONLY)
*
*NOTES: FOR RF OPERATION ADD PACKAGE INDUCTANCE OF 2.5E-9H 
*       AND SET RS=0.25 FOR 3V TUNING BIAS.
*
*   ZETEX  FMMV2108  Spice Model        Last revision 18/8/92
*
.MODEL FMMV2108 D IS=29.77E-15 N=1.106 RS=94.62E-3
+      XTI=3 EG=1.11 CJO=60.9E-12 M=.4768 VJ=.8658 FC=.5 
+      BV=45.14 IBV=.2589 TT=281.3E-9
*
*    + ISR=1.923E-12 NR=2.088 IKF=9.237 (LATER SPICE VERSIONS ONLY)
*
*NOTES: FOR RF OPERATION ADD PACKAGE INDUCTANCE OF 2.5E-9H 
*       AND SET RS=0.23 FOR 3V TUNING BIAS.
*
*   ZETEX  FMMV2109  Spice Model        Last revision 18/8/92
*
.MODEL FMMV2109 D IS=42.92E-15 N=1.111 RS=.152 XTI=3 
+      EG=1.11 CJO=70.85E-12 M=.4875 VJ=.9663 FC=.5 BV=45.15 
+      IBV=.2879 TT=288.5E-9
*
*    + ISR=2.961E-12 NR=1.977 IKF=16.1 (LATER SPICE VERSIONS ONLY)
*
*NOTES: FOR RF OPERATION ADD PACKAGE INDUCTANCE OF 2.5E-9H 
*       AND SET RS=0.22 FOR 3V TUNING BIAS.
*
*   ZETEX  FMMV3102  Spice Model        Last revision 18/8/92
*
.MODEL FMMV3102 D IS=5.452E-15 N=1.053 RS=.1858 XTI=3 
+      EG=1.11 CJO=52.04E-12 M=1.043 VJ=2.311 FC=.5 BV=45.12 
+      IBV=.1233 TT=194.8E-9
*
*    + ISR=853.1E-15 NR=1.988 IKF=10.51 (LATER SPICE VERSIONS ONLY)
*
*NOTES: FOR RF OPERATION ADD PACKAGE INDUCTANCE OF 2.5E-9H AND SET
*  RS=0.47 FOR 2V, 0.39 FOR 5V, 0.32 FOR 10V OR 0.28 FOR 20V BIAS.
*
.MODEL HD4A D IS=4.858E-9 N=2.038 RS=1.898 XTI=3 
+      EG=1.11 BV=164.1 IBV=12.94E-3 TT=4.184E-9
*
*      FOR LATER VERSIONS OF SPICE:-  SET RS=1.238 AND ADD
*    + ISR=7.937E-9 NR=2.113 IKF=22.89E-3
*
*   NOTES: FOR RF OPERATION ADD PACKAGE INDUCTANCE 0F 2.5E-9H AND 
*   PARALLEL CAPACITANCE OF 0.51E-12F.
*
*   ZETEX  LD102A   Spice Model        Last revision 21/8/92
*
.MODEL LD102A D IS=4.856E-9 N=2.01 RS=1.358 XTI=3 
+      EG=1.11 BV=162 IBV=2.587E-3 TT=4.184E-9
*
*      FOR LATER VERSIONS OF SPICE:-  SET RS=.908 AND ADD
*    + ISR=2.032E-18 NR=6.974 IKF=44.08E-3
*
*   NOTE: FOR RF OPERATION ADD PACKAGE INDUCTANCE OF 2.5E-9H AND
*         PARALLEL CAPACITANCE OF 0.35E-12F. 
*
*
*   ZETEX  LD103A    Spice Model        Last revision 21/8/92
*
.MODEL LD103A D IS=4.858E-9 N=2.038 RS=1.898 XTI=3 
+      EG=1.11 BV=164.1 IBV=12.94E-3 TT=4.184E-9
*
*      FOR LATER VERSIONS OF SPICE:-  SET RS=1.238 AND ADD
*    + ISR=7.937E-9 NR=2.113 IKF=22.89E-3
*
*   NOTES: FOR RF OPERATION ADD PACKAGE INDUCTANCE 0F 2.5E-9H AND 
*   PARALLEL CAPACITANCE OF 0.51E-12F.
*
*   ZETEX  LD106   Spice Model        Last revision 24/8/92
*
.MODEL LD106 D IS=4.739E-9 N=1.849 RS=.4418 XTI=3 
+      EG=1.11 BV=99.08 IBV=25.88E-3 TT=2.02E-9
*
*      FOR LATER VERSIONS OF SPICE:-  SET RS=.4318 AND ADD
*    + ISR=4.04E-9 NR=2.236 IKF=3.373
*
*   NOTES: FOR RF OPERATION ADD PACKAGE INDUCTANCE 0F 2.5E-9H AND 
*          PARALLEL CAPACITANCE OF 0.95E-12F.
*
*
*ZETEX  MPS5179 Spice model   Last revision 1/11/93
*
*   ZETEX  ZC820A  Spice Model        Last revision 4/3/92
*
.MODEL ZC820A D IS=5.355E-15 N=1.08 RS=0.1161 XTI=3
+ EG=1.11 CJO=19.15E-12 M=0.9001 VJ=2.164 FC=0.5
+ BV=45.1 IBV=51.74E-3 TT=129.8E-9
* + ISR=1.043E-12 NR=2.01 (INCLUDE FOR LATER SPICE VERSIONS)
*
*NOTES: FOR RF OPERATION ADD PACKAGE INDUCTANCE 0F 5E-9H AND SET
*  RS=0.68 FOR 2V, 0.60 FOR 5V, 0.52 FOR 10V OR 0.46 FOR 20V BIAS.
*
*   ZETEX  ZC821A  Spice Model        Last revision 5/3/92
*
.MODEL ZC821A D IS=4.668E-15 N=1.0630 RS=0.1917 XTI=3
+ EG=1.11 CJO=27.41E-12 M=0.9204 VJ=2.129 FC=0.5
+ BV=45.1 IBV=51.75E-3 TT=150E-9
* + ISR=1.298E-12 NR=2.048 (LATER SPICE VERSIONS ONLY)
*
*NOTES: FOR RF OPERATION ADD PACKAGE INDUCTANCE 0F 5E-9H AND SET
*  RS=0.60 FOR 2V, 0.53 FOR 5V, 0.45 FOR 10V OR 0.39 FOR 20V BIAS.
*
*   ZETEX  ZC822A  Spice Model        Last revision 7/3/92
*
.MODEL ZC822A D IS=3.857E-15 N=1.0460 RS=0.1188 XTI=3
+ EG=1.11 CJO=39.99E-12 M=0.9734 VJ=2.268 FC=0.5
+ BV=45.1 IBV=51.74E-3 TT=177.5E-9
* + ISR=1.798E-12 NR=2.145 (LATER SPICE VERSIONS ONLY)
*
*NOTES: FOR RF OPERATION ADD PACKAGE INDUCTANCE 0F 5E-9H AND SET
*  RS=0.53 FOR 2V, 0.47 FOR 5V, 0.38 FOR 10V OR 0.33 FOR 20V BIAS.
*
*   ZETEX  ZC823A  Spice Model        Last revision 7/3/92
*
.MODEL ZC823A D IS=3.880E-15 N=1.0380 RS=0.1100 XTI=3
+ EG=1.11 CJO=62.97E-12 M=0.9466 VJ=1.942 FC=0.5
+ BV=45.1 IBV=51.74E-3 TT=161.6E-9
* + ISR=1.671E-12 NR=2.166 (LATER SPICE VERSIONS ONLY)
*
*NOTES: FOR RF OPERATION ADD PACKAGE INDUCTANCE 0F 5E-9H AND SET
*  RS=0.47 FOR 2V, 0.39 FOR 5V, 0.32 FOR 10V OR 0.28 FOR 20V BIAS.
*
*   ZETEX  ZC824A  Spice Model        Last revision 7/3/92
*
.MODEL ZC824A D IS=5.526E-15 N=1.0380 RS=0.1000 XTI=3
+ EG=1.11 CJO=86.90E-12 M=0.9700 VJ=2.225 FC=0.5
+ BV=45.1 IBV=51.74E-3 TT=216.4E-9
* + ISR=1.904E-12 NR=2.166 (LATER SPICE VERSIONS ONLY)
*
*NOTES: FOR RF OPERATION ADD PACKAGE INDUCTANCE 0F 5E-9H AND SET
*  RS=0.39 FOR 2V, 0.33 FOR 5V, 0.27 FOR 10V OR 0.22 FOR 20V BIAS.
*
*   ZETEX  ZC825A  Spice Model        Last revision 7/3/92
*
.MODEL ZC825A D IS=18.16E-15 N=1.0550 RS=0.0771 XTI=3
+ EG=1.11 CJO=130.5E-12 M=0.9632 VJ=2.017 FC=0.5
+ BV=45.1 IBV=51.74E-3 TT=261.1E-9
* + ISR=2.130E-12 NR=2.166 (LATER SPICE VERSIONS ONLY)
*
*NOTES: FOR RF OPERATION ADD PACKAGE INDUCTANCE 0F 5E-9H AND SET
*  RS=0.32 FOR 2V, 0.26 FOR 5V, 0.20 FOR 10V OR 0.18 FOR 20V BIAS.
*
*   ZETEX  ZC826A  Spice Model        Last revision 7/3/92
*
.MODEL ZC826A D IS=8.661E-15 N=1.0260 RS=0.0300 XTI=3
+ EG=1.11 CJO=184.8E-12 M=1.0130 VJ=2.297 FC=0.5
+ BV=45.1 IBV=51.74E-3 TT=313.1E-9
* + ISR=2.592E-12 NR=2.021 (LATER SPICE VERSIONS ONLY)
*
*NOTES: FOR RF OPERATION ADD PACKAGE INDUCTANCE 0F 5E-9H AND SET
*  RS=0.23 FOR 2V, 0.18 FOR 5V, 0.15 FOR 10V OR 0.13 FOR 20V BIAS.
*
*   ZETEX  ZC830A  Spice Model        Last revision 4/3/92
*
.MODEL ZC830A D IS=5.355E-15 N=1.08 RS=0.1161 XTI=3
+ EG=1.11 CJO=19.15E-12 M=0.9001 VJ=2.164 FC=0.5
+ BV=45.1 IBV=51.74E-3 TT=129.8E-9
* + ISR=1.043E-12 NR=2.01 (INCLUDE FOR LATER SPICE VERSIONS)
*
*NOTES: FOR RF OPERATION ADD PACKAGE INDUCTANCE 0F 2.5E-9H AND SET
*  RS=0.68 FOR 2V, 0.60 FOR 5V, 0.52 FOR 10V OR 0.46 FOR 20V BIAS.
*
*   ZETEX  ZC831A  Spice Model        Last revision 5/3/92
*
.MODEL ZC831A D IS=4.668E-15 N=1.0630 RS=0.1917 XTI=3
+ EG=1.11 CJO=27.41E-12 M=0.9204 VJ=2.129 FC=0.5
+ BV=45.1 IBV=51.75E-3 TT=150E-9
* + ISR=1.298E-12 NR=2.048 (LATER SPICE VERSIONS ONLY)
*
*NOTES: FOR RF OPERATION ADD PACKAGE INDUCTANCE 0F 2.5E-9H AND SET
*  RS=0.60 FOR 2V, 0.53 FOR 5V, 0.45 FOR 10V OR 0.39 FOR 20V BIAS.
*
*   ZETEX  ZC832A  Spice Model        Last revision 7/3/92
*
.MODEL ZC832A D IS=3.857E-15 N=1.0460 RS=0.1188 XTI=3
+ EG=1.11 CJO=39.99E-12 M=0.9734 VJ=2.268 FC=0.5
+ BV=45.1 IBV=51.74E-3 TT=177.5E-9
* + ISR=1.798E-12 NR=2.145 (LATER SPICE VERSIONS ONLY)
*
*NOTES: FOR RF OPERATION ADD PACKAGE INDUCTANCE 0F 2.5E-9H AND SET
*  RS=0.53 FOR 2V, 0.47 FOR 5V, 0.38 FOR 10V OR 0.33 FOR 20V BIAS.
*
*   ZETEX  ZC833A  Spice Model        Last revision 7/3/92
*
.MODEL ZC833A D IS=3.880E-15 N=1.0380 RS=0.1100 XTI=3
+ EG=1.11 CJO=62.97E-12 M=0.9466 VJ=1.942 FC=0.5
+ BV=45.1 IBV=51.74E-3 TT=161.6E-9
* + ISR=1.671E-12 NR=2.166 (LATER SPICE VERSIONS ONLY)
*
*NOTES: FOR RF OPERATION ADD PACKAGE INDUCTANCE 0F 2.5E-9H AND SET
*  RS=0.47 FOR 2V, 0.39 FOR 5V, 0.32 FOR 10V OR 0.28 FOR 20V BIAS.
*
*   ZETEX  ZC834A  Spice Model        Last revision 7/3/92
*
.MODEL ZC834A D IS=5.526E-15 N=1.0380 RS=0.1000 XTI=3
+ EG=1.11 CJO=86.90E-12 M=0.9700 VJ=2.225 FC=0.5
+ BV=45.1 IBV=51.74E-3 TT=216.4E-9
* + ISR=1.904E-12 NR=2.166 (LATER SPICE VERSIONS ONLY)
*
*NOTES: FOR RF OPERATION ADD PACKAGE INDUCTANCE 0F 2.5E-9H AND SET
*  RS=0.39 FOR 2V, 0.33 FOR 5V, 0.27 FOR 10V OR 0.22 FOR 20V BIAS.
*
*   ZETEX  ZC835A  Spice Model        Last revision 7/3/92
*
.MODEL ZC835A D IS=18.16E-15 N=1.0550 RS=0.0771 XTI=3
+ EG=1.11 CJO=130.5E-12 M=0.9632 VJ=2.017 FC=0.5
+ BV=45.1 IBV=51.74E-3 TT=261.1E-9
* + ISR=2.130E-12 NR=2.166 (LATER SPICE VERSIONS ONLY)
*
*NOTES: FOR RF OPERATION ADD PACKAGE INDUCTANCE 0F 2.5E-9H AND SET
*  RS=0.32 FOR 2V, 0.26 FOR 5V, 0.20 FOR 10V OR 0.18 FOR 20V BIAS.
*
*   ZETEX  ZC836A  Spice Model        Last revision 7/3/92
*
.MODEL ZC836A D IS=8.661E-15 N=1.0260 RS=0.0300 XTI=3
+ EG=1.11 CJO=184.8E-12 M=1.0130 VJ=2.297 FC=0.5
+ BV=45.1 IBV=51.74E-3 TT=313.1E-9
* + ISR=2.592E-12 NR=2.021 (LATER SPICE VERSIONS ONLY)
*
*NOTES: FOR RF OPERATION ADD PACKAGE INDUCTANCE 0F 2.5E-9H AND SET
*  RS=0.23 FOR 2V, 0.18 FOR 5V, 0.15 FOR 10V OR 0.13 FOR 20V BIAS.
*
*   ZETEX  ZDX1F   Spice Model        Last revision 24/8/92
*
.MODEL ZDX1F D IS=4.739E-9 N=1.849 RS=.4418 XTI=3 
+      EG=1.11 BV=99.08 IBV=25.88E-3 TT=2.02E-9
*
*      FOR LATER VERSIONS OF SPICE:-  SET RS=.4318 AND ADD
*    + ISR=4.04E-9 NR=2.236 IKF=3.373
*
*   NOTES: FOR RF OPERATION ADD PACKAGE INDUCTANCE 0F 2.5E-9H AND 
*          PARALLEL CAPACITANCE OF 0.95E-12F.
*
*
*   ZETEX  ZDX2F   Spice Model        Last revision 24/8/92
*
.MODEL ZDX2F D IS=4.739E-9 N=1.849 RS=.4418 XTI=3 
+      EG=1.11 BV=99.08 IBV=25.88E-3 TT=2.02E-9
*
*      FOR LATER VERSIONS OF SPICE:-  SET RS=.4318 AND ADD
*    + ISR=4.04E-9 NR=2.236 IKF=3.373
*
*   NOTES: FOR RF OPERATION ADD PACKAGE INDUCTANCE 0F 2.5E-9H AND 
*          PARALLEL CAPACITANCE OF 0.95E-12F.
*
*
*   ZETEX  ZDX5    Spice Model        Last revision 21/8/92
*
.MODEL ZDX5 D IS=4.858E-9 N=2.038 RS=1.898 XTI=3 
+      EG=1.11 BV=164.1 IBV=12.94E-3 TT=4.184E-9
*
*      FOR LATER VERSIONS OF SPICE:-  SET RS=1.238 AND ADD
*    + ISR=7.937E-9 NR=2.113 IKF=22.89E-3
*
*   NOTES: FOR RF OPERATION ADD PACKAGE INDUCTANCE 0F 2.5E-9H AND 
*   PARALLEL CAPACITANCE OF 0.51E-12F.
*
*   ZETEX  ZDX6    Spice Model        Last revision 21/8/92
*
*BeginSpec
*JV: Vbe=0 Vce=0 Ib=0 Ib%=80
*OA: Vce=5
*FB: Vce=1
*VV: Ic/Ib=10
*CB:
*EB:
*ST: Ic/Ib=10
*GB: Vce=10
*EndSpec

*BeginTrace
*JV: 0,1,100.0E-6,.1,1,3,0,0,-1 (27)
*OA: 1,1,100.0E-6,.1,1,3,0,0,-1 (27)
*FB: 0,1,100.0E-6,.1,1,3,0,0,-1 (27)
*VV: 0,1,100.0E-6,.1,1,3,0,0,-1 (27)
*CB: 0,1,.1,100,1,3,0,0,-1 (27)
*EB: 0,1,.1,10,1,3,0,0,-1 (27)
*ST: 0,1,100.0E-6,.1,1,3,0,0,-1 (27)
*GB: 0,1,100.0E-6,.1,1,3,0,0,-1 (27)
*EndTrace

*BeginParam
*IS=300.00E-15 (10.000E-21,1.0000E-6,0)
*BF=225 (1,1.5000E3,0)
*NF=1 (.8,1.2000,0)
*VAF=80 (0,1.0000E3,0)
*IKF=2.8000 (10.000E-3,20,0)
*ISE=110.00E-15 (0,1,0)
*NE=1.3700 (1,2,0)
*BR=110 (.1,500,0)
*NR=.972 (.1,5,0)
*VAR=28 (0,1.0000E3,0)
*IKR=.8 (10.000E-3,20,0)
*ISC=650.00E-15 (0,1,0)
*NC=1.3720 (1,3,0)
*NK=.5 (.1,5,0)
*RE=63.000E-3 (0,100.00E3,0)
*RB=.3 (0,100.00E3,0)
*RC=70.000E-3 (0,100.00E3,0)
*CJE=325.00E-12 (0,1,0)
*VJE=.75 (.35,1.5000,0)
*MJE=.33 (.1,1,0)
*CJC=70.000E-12 (0,1,0)
*VJC=.75 (.35,1.5000,0)
*MJC=.33 (.1,1,0)
*FC=.5 (.1,1.5000,0)
*TF=1.0000E-9 (0,1,0)
*XTF=10 (0,100.00E3,0)
*VTF=10 (0,100.00E3,0)
*ITF=1 (0,100.00E3,0)
*PTF=0 (0,360,0)
*TR=10.000E-9 (0,1,0)
*EG=1.1100 (.69,5,0)
*XTB=0 (0,100.00E3,0)
*XTI=3 (.1,100.00E3,0)
*EndParam

