* COPYRIGHT OF INTERNATIONAL RECTIFIER
**************************************
*      Models Generated by MODPEX    *
*Copyright(c) Symmetry Design Systems*
*         All Rights Reserved        *
*    UNPUBLISHED LICENSED SOFTWARE   *
*   Contains Proprietary Information *
*      Which is The Property of      *
*     SYMMETRY OR ITS LICENSORS      *
*Commercial Use or Resale Restricted *
*   by Symmetry License Agreement    *
**************************************
.SUBCKT irf1010n 1 2 3
* Model generated on Feb 28, 96
* Model format: SPICE3
* Symmetry POWER MOS Model (Version 1.0)
* External Node Designations
* Node 1 -> Drain
* Node 2 -> Gate
* Node 3 -> Source
M1 9 7 8 8 MM L=100u W=100u
* Default values used in MM:
* The voltage-dependent capacitances are
* not included. Other default values are:
*   RS=0 RD=0 LD=0 CBD=0 CBS=0 CGBO=0
.MODEL MM NMOS LEVEL=1 IS=1e-32
+VTO=3.74111 LAMBDA=0 KP=77.9317
+CGSO=2.65858e-05 CGDO=9.07312e-07
RS 8 3 0.00744759
D1 3 1 MD
.MODEL MD D IS=3.76689e-10 RS=0.00546233 N=1.22683 BV=55
+IBV=10 EG=1.2 XTI=3.00546 TT=9.99105e-05
+CJO=2.38777e-09 VJ=1.6842 M=0.534609 FC=0.5
RDS 3 1 1e+06
RD 9 1 0.0001
RG 2 7 4.09017
D2 4 5 MD1
* Default values used in MD1:
*   RS=0 EG=1.11 XTI=3.0 TT=0
*   BV=infinite IBV=1mA
.MODEL MD1 D IS=1e-32 N=50
+CJO=3.56372e-09 VJ=0.5 M=0.70332 FC=1e-08
D3 0 5 MD2
* Default values used in MD2:
*   EG=1.11 XTI=3.0 TT=0 CJO=0
*   BV=infinite IBV=1mA
.MODEL MD2 D IS=1e-10 N=0.4 RS=3e-06
RL 5 10 1
FI2 7 9 VFI2 -1
VFI2 4 0 0
EV16 10 0 9 7 1
CAP 11 10 4.05227e-09
FI1 7 9 VFI1 -1
VFI1 11 6 0
RCAP 6 10 1
D4 0 6 MD3
* Default values used in MD3:
*   EG=1.11 XTI=3.0 TT=0 CJO=0
*   RS=0 BV=infinite IBV=1mA
.MODEL MD3 D IS=1e-10 N=0.4
.ENDS
************************************************************************
.SUBCKT irf1310 1 2 3
* Model generated on Feb 28, 96
* Model format: SPICE3
* Symmetry POWER MOS Model (Version 1.0)
* External Node Designations
* Node 1 -> Drain
* Node 2 -> Gate
* Node 3 -> Source
M1 9 7 8 8 MM L=100u W=100u
* Default values used in MM:
* The voltage-dependent capacitances are
* not included. Other default values are:
*   RS=0 RD=0 LD=0 CBD=0 CBS=0 CGBO=0
.MODEL MM NMOS LEVEL=1 IS=1e-32
+VTO=3.63122 LAMBDA=0 KP=35.017
+CGSO=2.41576e-05 CGDO=2.63501e-07
RS 8 3 0.0273231
D1 3 1 MD
.MODEL MD D IS=1.52845e-09 RS=0.00743652 N=1.2982 BV=100
+IBV=10 EG=1 XTI=3.65242 TT=2.00001e-05
+CJO=2.72404e-09 VJ=0.800983 M=0.501737 FC=0.1
RDS 3 1 1e+06
RD 9 1 0.0001
RG 2 7 6
D2 4 5 MD1
* Default values used in MD1:
*   RS=0 EG=1.11 XTI=3.0 TT=0
*   BV=infinite IBV=1mA
.MODEL MD1 D IS=1e-32 N=50
+CJO=2.2506e-09 VJ=0.5 M=0.793881 FC=1e-08
D3 0 5 MD2
* Default values used in MD2:
*   EG=1.11 XTI=3.0 TT=0 CJO=0
*   BV=infinite IBV=1mA
.MODEL MD2 D IS=1e-10 N=0.412074 RS=3e-06
RL 5 10 1
FI2 7 9 VFI2 -1
VFI2 4 0 0
EV16 10 0 9 7 1
CAP 11 10 3.81086e-09
FI1 7 9 VFI1 -1
VFI1 11 6 0
RCAP 6 10 1
D4 0 6 MD3
* Default values used in MD3:
*   EG=1.11 XTI=3.0 TT=0 CJO=0
*   RS=0 BV=infinite IBV=1mA
.MODEL MD3 D IS=1e-10 N=0.412074
.ENDS
*****************************************************************
.SUBCKT irf250 1 2 3
* Model generated on Apr  2, 96
* Model format: SPICE3
* Symmetry POWER MOS Model (Version 1.0)
* External Node Designations
* Node 1 -> Drain
* Node 2 -> Gate
* Node 3 -> Source
M1 9 7 8 8 MM L=100u W=100u
* Default values used in MM:
* The voltage-dependent capacitances are
* not included. Other default values are:
*   RS=0 RD=0 LD=0 CBD=0 CBS=0 CGBO=0
.MODEL MM NMOS LEVEL=1 IS=1e-32
+VTO=4.06407 LAMBDA=0.00201725 KP=11.459
+CGSO=3.36193e-05 CGDO=1e-11
RS 8 3 0.0157203
D1 3 1 MD
.MODEL MD D IS=1.93025e-08 RS=0.0131292 N=1.5 BV=200
+IBV=10 EG=1 XTI=4 TT=0
+CJO=3.06897e-09 VJ=5 M=0.9 FC=0.5
RDS 3 1 1e+06
RD 9 1 0.0417791
RG 2 7 19.6624
D2 4 5 MD1
* Default values used in MD1:
*   RS=0 EG=1.11 XTI=3.0 TT=0
*   BV=infinite IBV=1mA
.MODEL MD1 D IS=1e-32 N=50
+CJO=3.86401e-09 VJ=1.04486 M=0.9 FC=1e-08
D3 0 5 MD2
* Default values used in MD2:
*   EG=1.11 XTI=3.0 TT=0 CJO=0
*   BV=infinite IBV=1mA
.MODEL MD2 D IS=1e-10 N=0.479764 RS=3e-06
RL 5 10 1
FI2 7 9 VFI2 -1
VFI2 4 0 0
EV16 10 0 9 7 1
CAP 11 10 3.86401e-09
FI1 7 9 VFI1 -1
VFI1 11 6 0
RCAP 6 10 1
D4 0 6 MD3
* Default values used in MD3:
*   EG=1.11 XTI=3.0 TT=0 CJO=0
*   RS=0 BV=infinite IBV=1mA
.MODEL MD3 D IS=1e-10 N=0.479764
.ENDS
************************************************************
.SUBCKT irf2505s 1 2 3
* Model generated on Mar 18, 96
* Model format: SPICE3
* Symmetry POWER MOS Model (Version 1.0)
* External Node Designations
* Node 1 -> Drain
* Node 2 -> Gate
* Node 3 -> Source
M1 9 7 8 8 MM L=100u W=100u
* Default values used in MM:
* The voltage-dependent capacitances are
* not included. Other default values are:
*   RS=0 RD=0 LD=0 CBD=0 CBS=0 CGBO=0
.MODEL MM NMOS LEVEL=1 IS=1e-32
+VTO=2.3036 LAMBDA=0 KP=164.677
+CGSO=4.92532e-05 CGDO=1.55731e-08
RS 8 3 0.00471839
D1 3 1 MD
.MODEL MD D IS=1.43393e-08 RS=0.00404167 N=1.43393 BV=300
+IBV=10 EG=1.2 XTI=3.00549 TT=0
+CJO=3.20887e-09 VJ=2.8679 M=0.658815 FC=0.5
RDS 3 1 1e+06
RD 9 1 0.00236744
RG 2 7 2.32343
D2 4 5 MD1
* Default values used in MD1:
*   RS=0 EG=1.11 XTI=3.0 TT=0
*   BV=infinite IBV=1mA
.MODEL MD1 D IS=1e-32 N=50
+CJO=4.43264e-09 VJ=0.5 M=0.653792 FC=1e-08
D3 0 5 MD2
* Default values used in MD2:
*   EG=1.11 XTI=3.0 TT=0 CJO=0
*   BV=infinite IBV=1mA
.MODEL MD2 D IS=1e-10 N=0.4 RS=3e-06
RL 5 10 1
FI2 7 9 VFI2 -1
VFI2 4 0 0
EV16 10 0 9 7 1
CAP 11 10 9.31323e-09
FI1 7 9 VFI1 -1
VFI1 11 6 0
RCAP 6 10 1
D4 0 6 MD3
* Default values used in MD3:
*   EG=1.11 XTI=3.0 TT=0 CJO=0
*   RS=0 BV=infinite IBV=1mA
.MODEL MD3 D IS=1e-10 N=0.4
.ENDS
**************************************************************
.SUBCKT irf3205 1 2 3
* Model generated on Mar 18, 96
* Model format: SPICE3
* Symmetry POWER MOS Model (Version 1.0)
* External Node Designations
* Node 1 -> Drain
* Node 2 -> Gate
* Node 3 -> Source
M1 9 7 8 8 MM L=100u W=100u
* Default values used in MM:
* The voltage-dependent capacitances are
* not included. Other default values are:
*   RS=0 RD=0 LD=0 CBD=0 CBS=0 CGBO=0
.MODEL MM NMOS LEVEL=1 IS=1e-32
+VTO=3.7348 LAMBDA=0 KP=96.3696
+CGSO=3.64779e-05 CGDO=3.82059e-07
RS 8 3 0.00552159
D1 3 1 MD
.MODEL MD D IS=1.27808e-08 RS=0.00449494 N=1.4075 BV=55
+IBV=10 EG=1.00879 XTI=2.99739 TT=0.0001
+CJO=3.83929e-09 VJ=1.02423 M=0.486659 FC=0.5
RDS 3 1 1e+06
RD 9 1 0.0001
RG 2 7 3.97088
D2 4 5 MD1
* Default values used in MD1:
*   RS=0 EG=1.11 XTI=3.0 TT=0
*   BV=infinite IBV=1mA
.MODEL MD1 D IS=1e-32 N=50
+CJO=4.95011e-09 VJ=0.5 M=0.612251 FC=1e-08
D3 0 5 MD2
* Default values used in MD2:
*   EG=1.11 XTI=3.0 TT=0 CJO=0
*   BV=infinite IBV=1mA
.MODEL MD2 D IS=1e-10 N=0.412552 RS=3e-06
RL 5 10 1
FI2 7 9 VFI2 -1
VFI2 4 0 0
EV16 10 0 9 7 1
CAP 11 10 4.95011e-09
FI1 7 9 VFI1 -1
VFI1 11 6 0
RCAP 6 10 1
D4 0 6 MD3
* Default values used in MD3:
*   EG=1.11 XTI=3.0 TT=0 CJO=0
*   RS=0 BV=infinite IBV=1mA
.MODEL MD3 D IS=1e-10 N=0.412552
.ENDS
********************************************************************
.SUBCKT irf3205s 1 2 3
* Model generated on Mar 18, 96
* Model format: SPICE3
* Symmetry POWER MOS Model (Version 1.0)
* External Node Designations
* Node 1 -> Drain
* Node 2 -> Gate
* Node 3 -> Source
M1 9 7 8 8 MM L=100u W=100u
* Default values used in MM:
* The voltage-dependent capacitances are
* not included. Other default values are:
*   RS=0 RD=0 LD=0 CBD=0 CBS=0 CGBO=0
.MODEL MM NMOS LEVEL=1 IS=1e-32
+VTO=3.7348 LAMBDA=0 KP=96.3696
+CGSO=3.64779e-05 CGDO=3.82059e-07
RS 8 3 0.00552159
D1 3 1 MD
.MODEL MD D IS=1.27808e-08 RS=0.00449494 N=1.4075 BV=55
+IBV=10 EG=1.00879 XTI=2.99739 TT=0.0001
+CJO=3.83929e-09 VJ=1.02423 M=0.486659 FC=0.5
RDS 3 1 1e+06
RD 9 1 0.0001
RG 2 7 3.97088
D2 4 5 MD1
* Default values used in MD1:
*   RS=0 EG=1.11 XTI=3.0 TT=0
*   BV=infinite IBV=1mA
.MODEL MD1 D IS=1e-32 N=50
+CJO=4.95011e-09 VJ=0.5 M=0.612251 FC=1e-08
D3 0 5 MD2
* Default values used in MD2:
*   EG=1.11 XTI=3.0 TT=0 CJO=0
*   BV=infinite IBV=1mA
.MODEL MD2 D IS=1e-10 N=0.412552 RS=3e-06
RL 5 10 1
FI2 7 9 VFI2 -1
VFI2 4 0 0
EV16 10 0 9 7 1
CAP 11 10 4.95011e-09
FI1 7 9 VFI1 -1
VFI1 11 6 0
RCAP 6 10 1
D4 0 6 MD3
* Default values used in MD3:
*   EG=1.11 XTI=3.0 TT=0 CJO=0
*   RS=0 BV=infinite IBV=1mA
.MODEL MD3 D IS=1e-10 N=0.412552
.ENDS
****************************************************************
.SUBCKT irf3710 1 2 3
* Model generated on Mar 18, 96
* Model format: SPICE3
* Symmetry POWER MOS Model (Version 1.0)
* External Node Designations
* Node 1 -> Drain
* Node 2 -> Gate
* Node 3 -> Source
M1 9 7 8 8 MM L=100u W=100u
* Default values used in MM:
* The voltage-dependent capacitances are
* not included. Other default values are:
*   RS=0 RD=0 LD=0 CBD=0 CBS=0 CGBO=0
.MODEL MM NMOS LEVEL=1 IS=1e-32
+VTO=3.67654 LAMBDA=0 KP=36.0448
+CGSO=2.79534e-05 CGDO=1.13738e-06
RS 8 3 0.00844724
D1 3 1 MD
.MODEL MD D IS=2.32268e-12 RS=0.00536465 N=1.01621 BV=100
+IBV=10 EG=1.2 XTI=3.07373 TT=2.0001e-05
+CJO=1.85912e-09 VJ=0.523841 M=0.46058 FC=0.1
RDS 3 1 1e+06
RD 9 1 0.00708389
RG 2 7 3.44341
D2 4 5 MD1
* Default values used in MD1:
*   RS=0 EG=1.11 XTI=3.0 TT=0
*   BV=infinite IBV=1mA
.MODEL MD1 D IS=1e-32 N=50
+CJO=4.18533e-09 VJ=0.5 M=0.751879 FC=1e-08
D3 0 5 MD2
* Default values used in MD2:
*   EG=1.11 XTI=3.0 TT=0 CJO=0
*   BV=infinite IBV=1mA
.MODEL MD2 D IS=1e-10 N=0.400231 RS=3e-06
RL 5 10 1
FI2 7 9 VFI2 -1
VFI2 4 0 0
EV16 10 0 9 7 1
CAP 11 10 6.90085e-09
FI1 7 9 VFI1 -1
VFI1 11 6 0
RCAP 6 10 1
D4 0 6 MD3
* Default values used in MD3:
*   EG=1.11 XTI=3.0 TT=0 CJO=0
*   RS=0 BV=infinite IBV=1mA
.MODEL MD3 D IS=1e-10 N=0.400231
.ENDS
******************************************************************
.SUBCKT irf3710s 1 2 3
* Model generated on Mar 18, 96
* Model format: SPICE3
* Symmetry POWER MOS Model (Version 1.0)
* External Node Designations
* Node 1 -> Drain
* Node 2 -> Gate
* Node 3 -> Source
M1 9 7 8 8 MM L=100u W=100u
* Default values used in MM:
* The voltage-dependent capacitances are
* not included. Other default values are:
*   RS=0 RD=0 LD=0 CBD=0 CBS=0 CGBO=0
.MODEL MM NMOS LEVEL=1 IS=1e-32
+VTO=3.67654 LAMBDA=0 KP=36.0448
+CGSO=2.79534e-05 CGDO=1.13738e-06
RS 8 3 0.00844724
D1 3 1 MD
.MODEL MD D IS=2.32268e-12 RS=0.00536465 N=1.01621 BV=100
+IBV=10 EG=1.2 XTI=3.07373 TT=2.0001e-05
+CJO=1.85912e-09 VJ=0.523841 M=0.46058 FC=0.1
RDS 3 1 1e+06
RD 9 1 0.00708389
RG 2 7 3.44341
D2 4 5 MD1
* Default values used in MD1:
*   RS=0 EG=1.11 XTI=3.0 TT=0
*   BV=infinite IBV=1mA
.MODEL MD1 D IS=1e-32 N=50
+CJO=4.18533e-09 VJ=0.5 M=0.751879 FC=1e-08
D3 0 5 MD2
* Default values used in MD2:
*   EG=1.11 XTI=3.0 TT=0 CJO=0
*   BV=infinite IBV=1mA
.MODEL MD2 D IS=1e-10 N=0.400231 RS=3e-06
RL 5 10 1
FI2 7 9 VFI2 -1
VFI2 4 0 0
EV16 10 0 9 7 1
CAP 11 10 6.90085e-09
FI1 7 9 VFI1 -1
VFI1 11 6 0
RCAP 6 10 1
D4 0 6 MD3
* Default values used in MD3:
*   EG=1.11 XTI=3.0 TT=0 CJO=0
*   RS=0 BV=infinite IBV=1mA
.MODEL MD3 D IS=1e-10 N=0.400231
.ENDS
******************************************************************
.SUBCKT irf510 1 2 3
* Model generated on Mar 11, 96
* Model format: SPICE3
* Symmetry POWER MOS Model (Version 1.0)
* External Node Designations
* Node 1 -> Drain
* Node 2 -> Gate
* Node 3 -> Source
M1 9 7 8 8 MM L=100u W=100u
* Default values used in MM:
* The voltage-dependent capacitances are
* not included. Other default values are:
*   RS=0 RD=0 LD=0 CBD=0 CBS=0 CGBO=0
.MODEL MM NMOS LEVEL=1 IS=1e-32
+VTO=3.82703 LAMBDA=0 KP=2.48457
+CGSO=1.72132e-06 CGDO=5.99235e-11
RS 8 3 0.276929
D1 3 1 MD
.MODEL MD D IS=6.52734e-11 RS=0.0458243 N=1.2565 BV=100
+IBV=10 EG=1.2 XTI=1 TT=-2.05283e-09
+CJO=2.98645e-10 VJ=0.774158 M=0.422859 FC=0.5
RDS 3 1 1e+06
RD 9 1 0.0673242
RG 2 7 13.1694
D2 4 5 MD1
* Default values used in MD1:
*   RS=0 EG=1.11 XTI=3.0 TT=0
*   BV=infinite IBV=1mA
.MODEL MD1 D IS=1e-32 N=50
+CJO=1.85121e-10 VJ=0.500044 M=0.651006 FC=1e-08
D3 0 5 MD2
* Default values used in MD2:
*   EG=1.11 XTI=3.0 TT=0 CJO=0
*   BV=infinite IBV=1mA
.MODEL MD2 D IS=1e-10 N=0.4 RS=3e-06
RL 5 10 1
FI2 7 9 VFI2 -1
VFI2 4 0 0
EV16 10 0 9 7 1
CAP 11 10 3.40332e-10
FI1 7 9 VFI1 -1
VFI1 11 6 0
RCAP 6 10 1
D4 0 6 MD3
* Default values used in MD3:
*   EG=1.11 XTI=3.0 TT=0 CJO=0
*   RS=0 BV=infinite IBV=1mA
.MODEL MD3 D IS=1e-10 N=0.4
.ENDS
******************************************************************
.SUBCKT irf520 1 2 3
* Model generated on Mar 11, 96
* Model format: SPICE3
* Symmetry POWER MOS Model (Version 1.0)
* External Node Designations
* Node 1 -> Drain
* Node 2 -> Gate
* Node 3 -> Source
M1 9 7 8 8 MM L=100u W=100u
* Default values used in MM:
* The voltage-dependent capacitances are
* not included. Other default values are:
*   RS=0 RD=0 LD=0 CBD=0 CBS=0 CGBO=0
.MODEL MM NMOS LEVEL=1 IS=1e-32
+VTO=3.6157 LAMBDA=0.0058579 KP=3.91815
+CGSO=3.28345e-06 CGDO=1.0112e-11
RS 8 3 0.171342
D1 3 1 MD
.MODEL MD D IS=3.66595e-11 RS=0.030971 N=1.17844 BV=100
+IBV=10 EG=1 XTI=2.99636 TT=2.27818e-09
+CJO=5.01987e-10 VJ=0.565258 M=0.378445 FC=0.5
RDS 3 1 1e+06
RD 9 1 0.0144008
RG 2 7 1.55664
D2 4 5 MD1
* Default values used in MD1:
*   RS=0 EG=1.11 XTI=3.0 TT=0
*   BV=infinite IBV=1mA
.MODEL MD1 D IS=1e-32 N=50
+CJO=4.14566e-10 VJ=0.5 M=0.640575 FC=1e-08
D3 0 5 MD2
* Default values used in MD2:
*   EG=1.11 XTI=3.0 TT=0 CJO=0
*   BV=infinite IBV=1mA
.MODEL MD2 D IS=1e-10 N=0.4 RS=3e-06
RL 5 10 1
FI2 7 9 VFI2 -1
VFI2 4 0 0
EV16 10 0 9 7 1
CAP 11 10 6.23795e-10
FI1 7 9 VFI1 -1
VFI1 11 6 0
RCAP 6 10 1
D4 0 6 MD3
* Default values used in MD3:
*   EG=1.11 XTI=3.0 TT=0 CJO=0
*   RS=0 BV=infinite IBV=1mA
.MODEL MD3 D IS=1e-10 N=0.4
.ENDS
******************************************************************
.SUBCKT irf520n 1 2 3
* Model generated on Mar 11, 96
* Model format: SPICE3
* Symmetry POWER MOS Model (Version 1.0)
* External Node Designations
* Node 1 -> Drain
* Node 2 -> Gate
* Node 3 -> Source
M1 9 7 8 8 MM L=100u W=100u
* Default values used in MM:
* The voltage-dependent capacitances are
* not included. Other default values are:
*   RS=0 RD=0 LD=0 CBD=0 CBS=0 CGBO=0
.MODEL MM NMOS LEVEL=1 IS=1e-32
+VTO=2.88973 LAMBDA=0 KP=1.7659
+CGSO=2.79023e-06 CGDO=1e-11
RS 8 3 0.0001
D1 3 1 MD
.MODEL MD D IS=1.0343e-10 RS=0.0107552 N=1.30585 BV=100
+IBV=10 EG=1.2 XTI=4 TT=9.99847e-05
+CJO=1.90917e-10 VJ=0.5 M=0.395048 FC=0.1
RDS 3 1 1e+06
RD 9 1 0.106264
RG 2 7 2.49106
D2 4 5 MD1
* Default values used in MD1:
*   RS=0 EG=1.11 XTI=3.0 TT=0
*   BV=infinite IBV=1mA
.MODEL MD1 D IS=1e-32 N=50
+CJO=4.11936e-10 VJ=0.5 M=0.519039 FC=1e-08
D3 0 5 MD2
* Default values used in MD2:
*   EG=1.11 XTI=3.0 TT=0 CJO=0
*   BV=infinite IBV=1mA
.MODEL MD2 D IS=1e-10 N=0.45888 RS=3e-06
RL 5 10 1
FI2 7 9 VFI2 -1
VFI2 4 0 0
EV16 10 0 9 7 1
CAP 11 10 9.81932e-10
FI1 7 9 VFI1 -1
VFI1 11 6 0
RCAP 6 10 1
D4 0 6 MD3
* Default values used in MD3:
*   EG=1.11 XTI=3.0 TT=0 CJO=0
*   RS=0 BV=infinite IBV=1mA
.MODEL MD3 D IS=1e-10 N=0.45888
.ENDS
******************************************************************
.SUBCKT irf520ns 1 2 3
* Model generated on Mar 18, 96
* Model format: SPICE3
* Symmetry POWER MOS Model (Version 1.0)
* External Node Designations
* Node 1 -> Drain
* Node 2 -> Gate
* Node 3 -> Source
M1 9 7 8 8 MM L=100u W=100u
* Default values used in MM:
* The voltage-dependent capacitances are
* not included. Other default values are:
*   RS=0 RD=0 LD=0 CBD=0 CBS=0 CGBO=0
.MODEL MM NMOS LEVEL=1 IS=1e-32
+VTO=2.88973 LAMBDA=0 KP=1.7659
+CGSO=2.79023e-06 CGDO=1e-11
RS 8 3 0.0001
D1 3 1 MD
.MODEL MD D IS=1.0343e-10 RS=0.0107552 N=1.30585 BV=100
+IBV=10 EG=1.2 XTI=4 TT=9.99847e-05
+CJO=1.90917e-10 VJ=0.5 M=0.395048 FC=0.1
RDS 3 1 1e+06
RD 9 1 0.106264
RG 2 7 2.49106
D2 4 5 MD1
* Default values used in MD1:
*   RS=0 EG=1.11 XTI=3.0 TT=0
*   BV=infinite IBV=1mA
.MODEL MD1 D IS=1e-32 N=50
+CJO=4.11936e-10 VJ=0.5 M=0.519039 FC=1e-08
D3 0 5 MD2
* Default values used in MD2:
*   EG=1.11 XTI=3.0 TT=0 CJO=0
*   BV=infinite IBV=1mA
.MODEL MD2 D IS=1e-10 N=0.45888 RS=3e-06
RL 5 10 1
FI2 7 9 VFI2 -1
VFI2 4 0 0
EV16 10 0 9 7 1
CAP 11 10 9.81932e-10
FI1 7 9 VFI1 -1
VFI1 11 6 0
RCAP 6 10 1
D4 0 6 MD3
* Default values used in MD3:
*   EG=1.11 XTI=3.0 TT=0 CJO=0
*   RS=0 BV=infinite IBV=1mA
.MODEL MD3 D IS=1e-10 N=0.45888
.ENDS
******************************************************************
.SUBCKT irf530n 1 2 3
* Model generated on Mar 18, 96
* Model format: SPICE3
* Symmetry POWER MOS Model (Version 1.0)
* External Node Designations
* Node 1 -> Drain
* Node 2 -> Gate
* Node 3 -> Source
M1 9 7 8 8 MM L=100u W=100u
* Default values used in MM:
* The voltage-dependent capacitances are
* not included. Other default values are:
*   RS=0 RD=0 LD=0 CBD=0 CBS=0 CGBO=0
.MODEL MM NMOS LEVEL=1 IS=1e-32
+VTO=3.62474 LAMBDA=0.00348023 KP=17.2761
+CGSO=5.59846e-06 CGDO=2.4372e-07
RS 8 3 0.0607456
D1 3 1 MD
.MODEL MD D IS=3.51764e-11 RS=0.0104493 N=1.21252 BV=100
+IBV=10 EG=1.2 XTI=3.04 TT=0
+CJO=4.21056e-10 VJ=0.5 M=0.444695 FC=0.5
RDS 3 1 1e+06
RD 9 1 0.0178999
RG 2 7 2.87468
D2 4 5 MD1
* Default values used in MD1:
*   RS=0 EG=1.11 XTI=3.0 TT=0
*   BV=infinite IBV=1mA
.MODEL MD1 D IS=1e-32 N=50
+CJO=8.55412e-10 VJ=0.5 M=0.692211 FC=1e-08
D3 0 5 MD2
* Default values used in MD2:
*   EG=1.11 XTI=3.0 TT=0 CJO=0
*   BV=infinite IBV=1mA
.MODEL MD2 D IS=1e-10 N=0.404931 RS=3e-06
RL 5 10 1
FI2 7 9 VFI2 -1
VFI2 4 0 0
EV16 10 0 9 7 1
CAP 11 10 1.76019e-09
FI1 7 9 VFI1 -1
VFI1 11 6 0
RCAP 6 10 1
D4 0 6 MD3
* Default values used in MD3:
*   EG=1.11 XTI=3.0 TT=0 CJO=0
*   RS=0 BV=infinite IBV=1mA
.MODEL MD3 D IS=1e-10 N=0.404931
.ENDS
******************************************************************
.SUBCKT irf530ns 1 2 3
* Model generated on Mar 18, 96
* Model format: SPICE3
* Symmetry POWER MOS Model (Version 1.0)
* External Node Designations
* Node 1 -> Drain
* Node 2 -> Gate
* Node 3 -> Source
M1 9 7 8 8 MM L=100u W=100u
* Default values used in MM:
* The voltage-dependent capacitances are
* not included. Other default values are:
*   RS=0 RD=0 LD=0 CBD=0 CBS=0 CGBO=0
.MODEL MM NMOS LEVEL=1 IS=1e-32
+VTO=3.62474 LAMBDA=0.00348023 KP=17.2761
+CGSO=5.59846e-06 CGDO=2.4372e-07
RS 8 3 0.0607456
D1 3 1 MD
.MODEL MD D IS=3.51764e-11 RS=0.0104493 N=1.21252 BV=100
+IBV=10 EG=1.2 XTI=3.04 TT=0
+CJO=4.21056e-10 VJ=0.5 M=0.444695 FC=0.5
RDS 3 1 1e+06
RD 9 1 0.0178999
RG 2 7 2.87468
D2 4 5 MD1
* Default values used in MD1:
*   RS=0 EG=1.11 XTI=3.0 TT=0
*   BV=infinite IBV=1mA
.MODEL MD1 D IS=1e-32 N=50
+CJO=8.55412e-10 VJ=0.5 M=0.692211 FC=1e-08
D3 0 5 MD2
* Default values used in MD2:
*   EG=1.11 XTI=3.0 TT=0 CJO=0
*   BV=infinite IBV=1mA
.MODEL MD2 D IS=1e-10 N=0.404931 RS=3e-06
RL 5 10 1
FI2 7 9 VFI2 -1
VFI2 4 0 0
EV16 10 0 9 7 1
CAP 11 10 1.76019e-09
FI1 7 9 VFI1 -1
VFI1 11 6 0
RCAP 6 10 1
D4 0 6 MD3
* Default values used in MD3:
*   EG=1.11 XTI=3.0 TT=0 CJO=0
*   RS=0 BV=infinite IBV=1mA
.MODEL MD3 D IS=1e-10 N=0.404931
.ENDS
******************************************************************
.SUBCKT irf540 1 2 3
* Model generated on Mar 29, 96
* Model format: SPICE3
* Symmetry POWER MOS Model (Version 1.0)
* External Node Designations
* Node 1 -> Drain
* Node 2 -> Gate
* Node 3 -> Source
M1 9 7 8 8 MM L=100u W=100u
* Default values used in MM:
* The voltage-dependent capacitances are
* not included. Other default values are:
*   RS=0 RD=0 LD=0 CBD=0 CBS=0 CGBO=0
.MODEL MM NMOS LEVEL=1 IS=1e-32
+VTO=3.55788 LAMBDA=0.00280595 KP=24.5638
+CGSO=1.60452e-05 CGDO=4.38209e-07
RS 8 3 0.0311391
D1 3 1 MD
.MODEL MD D IS=3.63167e-10 RS=0.00920757 N=1.28947 BV=100
+IBV=10 EG=1.2 XTI=3.02882 TT=0.0001
+CJO=1.75511e-09 VJ=1.12782 M=0.42773 FC=0.5
RDS 3 1 1e+06
RD 9 1 0.013931
RG 2 7 5.11362
D2 4 5 MD1
* Default values used in MD1:
*   RS=0 EG=1.11 XTI=3.0 TT=0
*   BV=infinite IBV=1mA
.MODEL MD1 D IS=1e-32 N=50
+CJO=2.52801e-09 VJ=0.5 M=0.9 FC=1e-08
D3 0 5 MD2
* Default values used in MD2:
*   EG=1.11 XTI=3.0 TT=0 CJO=0
*   BV=infinite IBV=1mA
.MODEL MD2 D IS=1e-10 N=0.4 RS=3e-06
RL 5 10 1
FI2 7 9 VFI2 -1
VFI2 4 0 0
EV16 10 0 9 7 1
CAP 11 10 2.4e-09
FI1 7 9 VFI1 -1
VFI1 11 6 0
RCAP 6 10 1
D4 0 6 MD3
* Default values used in MD3:
*   EG=1.11 XTI=3.0 TT=0 CJO=0
*   RS=0 BV=infinite IBV=1mA
.MODEL MD3 D IS=1e-10 N=0.4
.ENDS
******************************************************************
.SUBCKT irf540n 1 2 3
* Model generated on Mar 15, 96
* Model format: SPICE3
* Symmetry POWER MOS Model (Version 1.0)
* External Node Designations
* Node 1 -> Drain
* Node 2 -> Gate
* Node 3 -> Source
M1 9 7 8 8 MM L=100u W=100u
* Default values used in MM:
* The voltage-dependent capacitances are
* not included. Other default values are:
*   RS=0 RD=0 LD=0 CBD=0 CBS=0 CGBO=0
.MODEL MM NMOS LEVEL=1 IS=1e-32
+VTO=3.5613 LAMBDA=0.000893046 KP=28.5305
+CGSO=1.23461e-05 CGDO=1.77267e-08
RS 8 3 0.0251668
D1 3 1 MD
.MODEL MD D IS=2.99441e-09 RS=0.00784303 N=1.38272 BV=100
+IBV=10 EG=1.15741 XTI=3.00122 TT=0
+CJO=7.95381e-10 VJ=0.5 M=0.374752 FC=0.5
RDS 3 1 1e+06
RD 9 1 0.00622641
RG 2 7 4.10175
D2 4 5 MD1
* Default values used in MD1:
*   RS=0 EG=1.11 XTI=3.0 TT=0
*   BV=infinite IBV=1mA
.MODEL MD1 D IS=1e-32 N=50
+CJO=1.73055e-09 VJ=0.513181 M=0.614705 FC=1e-08
D3 0 5 MD2
* Default values used in MD2:
*   EG=1.11 XTI=3.0 TT=0 CJO=0
*   BV=infinite IBV=1mA
.MODEL MD2 D IS=1e-10 N=0.4 RS=3e-06
RL 5 10 1
FI2 7 9 VFI2 -1
VFI2 4 0 0
EV16 10 0 9 7 1
CAP 11 10 3.87468e-09
FI1 7 9 VFI1 -1
VFI1 11 6 0
RCAP 6 10 1
D4 0 6 MD3
* Default values used in MD3:
*   EG=1.11 XTI=3.0 TT=0 CJO=0
*   RS=0 BV=infinite IBV=1mA
.MODEL MD3 D IS=1e-10 N=0.4
.ENDS
******************************************************************
.SUBCKT irf540ns 1 2 3
* Model generated on Mar 18, 96
* Model format: SPICE3
* Symmetry POWER MOS Model (Version 1.0)
* External Node Designations
* Node 1 -> Drain
* Node 2 -> Gate
* Node 3 -> Source
M1 9 7 8 8 MM L=100u W=100u
* Default values used in MM:
* The voltage-dependent capacitances are
* not included. Other default values are:
*   RS=0 RD=0 LD=0 CBD=0 CBS=0 CGBO=0
.MODEL MM NMOS LEVEL=1 IS=1e-32
+VTO=3.5613 LAMBDA=0.000893046 KP=28.5305
+CGSO=1.23461e-05 CGDO=1.77267e-08
RS 8 3 0.0251668
D1 3 1 MD
.MODEL MD D IS=2.99441e-09 RS=0.00784303 N=1.38272 BV=100
+IBV=10 EG=1.15741 XTI=3.00122 TT=0
+CJO=7.95381e-10 VJ=0.5 M=0.374752 FC=0.5
RDS 3 1 1e+06
RD 9 1 0.00622641
RG 2 7 4.10175
D2 4 5 MD1
* Default values used in MD1:
*   RS=0 EG=1.11 XTI=3.0 TT=0
*   BV=infinite IBV=1mA
.MODEL MD1 D IS=1e-32 N=50
+CJO=1.73055e-09 VJ=0.513181 M=0.614705 FC=1e-08
D3 0 5 MD2
* Default values used in MD2:
*   EG=1.11 XTI=3.0 TT=0 CJO=0
*   BV=infinite IBV=1mA
.MODEL MD2 D IS=1e-10 N=0.4 RS=3e-06
RL 5 10 1
FI2 7 9 VFI2 -1
VFI2 4 0 0
EV16 10 0 9 7 1
CAP 11 10 3.87468e-09
FI1 7 9 VFI1 -1
VFI1 11 6 0
RCAP 6 10 1
D4 0 6 MD3
* Default values used in MD3:
*   EG=1.11 XTI=3.0 TT=0 CJO=0
*   RS=0 BV=infinite IBV=1mA
.MODEL MD3 D IS=1e-10 N=0.4
.ENDS
******************************************************************
.SUBCKT irf7201 1 2 3
* Model generated on Mar  4, 96
* Model format: SPICE3
* Symmetry POWER MOS Model (Version 1.0)
* External Node Designations
* Node 1 -> Drain
* Node 2 -> Gate
* Node 3 -> Source
M1 9 7 8 8 MM L=100u W=100u
* Default values used in MM:
* The voltage-dependent capacitances are
* not included. Other default values are:
*   RS=0 RD=0 LD=0 CBD=0 CBS=0 CGBO=0
.MODEL MM NMOS LEVEL=1 IS=1e-32
+VTO=2.64408 LAMBDA=0.000614043 KP=30.6735
+CGSO=4.78201e-06 CGDO=1e-11
RS 8 3 0.0175629
D1 3 1 MD
.MODEL MD D IS=3.0045e-11 RS=0.00902783 N=1.18533 BV=30
+IBV=10 EG=1.2 XTI=3.35888 TT=9.98773e-05
+CJO=7.403e-10 VJ=0.50009 M=0.373532 FC=0.5
RDS 3 1 1e+06
RD 9 1 0.0001
RG 2 7 6.92841
D2 4 5 MD1
* Default values used in MD1:
*   RS=0 EG=1.11 XTI=3.0 TT=0
*   BV=infinite IBV=1mA
.MODEL MD1 D IS=1e-32 N=50
+CJO=7.44988e-10 VJ=0.5 M=0.51626 FC=1e-08
D3 0 5 MD2
* Default values used in MD2:
*   EG=1.11 XTI=3.0 TT=0 CJO=0
*   BV=infinite IBV=1mA
.MODEL MD2 D IS=1e-10 N=0.436673 RS=3e-06
RL 5 10 1
FI2 7 9 VFI2 -1
VFI2 4 0 0
EV16 10 0 9 7 1
CAP 11 10 9.68799e-10
FI1 7 9 VFI1 -1
VFI1 11 6 0
RCAP 6 10 1
D4 0 6 MD3
* Default values used in MD3:
*   EG=1.11 XTI=3.0 TT=0 CJO=0
*   RS=0 BV=infinite IBV=1mA
.MODEL MD3 D IS=1e-10 N=0.436673
.ENDS
******************************************************************
.SUBCKT irf7413 1 2 3
* Model generated on Apr  2, 96
* Model format: SPICE3
* Symmetry POWER MOS Model (Version 1.0)
* External Node Designations
* Node 1 -> Drain
* Node 2 -> Gate
* Node 3 -> Source
M1 9 7 8 8 MM L=100u W=100u
* Default values used in MM:
* The voltage-dependent capacitances are
* not included. Other default values are:
*   RS=0 RD=0 LD=0 CBD=0 CBS=0 CGBO=0
.MODEL MM NMOS LEVEL=1 IS=1e-32
+VTO=2.66427 LAMBDA=0.00489318 KP=89.0397
+CGSO=1.68868e-05 CGDO=1.33184e-06
RS 8 3 0.00853027
D1 3 1 MD
.MODEL MD D IS=4.56018e-08 RS=0.0375081 N=1.5 BV=30
+IBV=10 EG=1 XTI=4 TT=1.99941e-05
+CJO=2.25643e-09 VJ=0.5 M=0.420315 FC=0.1
RDS 3 1 1e+06
RD 9 1 0.0001
RG 2 7 6.86824
D2 4 5 MD1
* Default values used in MD1:
*   RS=0 EG=1.11 XTI=3.0 TT=0
*   BV=infinite IBV=1mA
.MODEL MD1 D IS=1e-32 N=50
+CJO=1.28e-09 VJ=2.11133 M=0.9 FC=1e-08
D3 0 5 MD2
* Default values used in MD2:
*   EG=1.11 XTI=3.0 TT=0 CJO=0
*   BV=infinite IBV=1mA
.MODEL MD2 D IS=1e-10 N=0.4 RS=3.00001e-06
RL 5 10 1
FI2 7 9 VFI2 -1
VFI2 4 0 0
EV16 10 0 9 7 1
CAP 11 10 1.28e-09
FI1 7 9 VFI1 -1
VFI1 11 6 0
RCAP 6 10 1
D4 0 6 MD3
* Default values used in MD3:
*   EG=1.11 XTI=3.0 TT=0 CJO=0
*   RS=0 BV=infinite IBV=1mA
.MODEL MD3 D IS=1e-10 N=0.4
.ENDS
******************************************************************
.SUBCKT irff110 1 2 3
* Model generated on Mar 13, 96
* Model format: SPICE3
* Symmetry POWER MOS Model (Version 1.0)
* External Node Designations
* Node 1 -> Drain
* Node 2 -> Gate
* Node 3 -> Source
M1 9 7 8 8 MM L=100u W=100u
* Default values used in MM:
* The voltage-dependent capacitances are
* not included. Other default values are:
*   RS=0 RD=0 LD=0 CBD=0 CBS=0 CGBO=0
.MODEL MM NMOS LEVEL=1 IS=1e-32
+VTO=3.7131 LAMBDA=0.00619193 KP=4.20182
+CGSO=1.70114e-06 CGDO=1e-11
RS 8 3 0.242987
D1 3 1 MD
.MODEL MD D IS=2.40962e-09 RS=0.0419045 N=1.5 BV=100
+IBV=10 EG=1.2 XTI=4 TT=1.48109e-06
+CJO=2.94997e-10 VJ=0.8372 M=0.430197 FC=0.5
RDS 3 1 1e+06
RD 9 1 0.0367172
RG 2 7 15.6315
D2 4 5 MD1
* Default values used in MD1:
*   RS=0 EG=1.11 XTI=3.0 TT=0
*   BV=infinite IBV=1mA
.MODEL MD1 D IS=1e-32 N=50
+CJO=1.84037e-10 VJ=0.500028 M=0.649236 FC=1e-08
D3 0 5 MD2
* Default values used in MD2:
*   EG=1.11 XTI=3.0 TT=0 CJO=0
*   BV=infinite IBV=1mA
.MODEL MD2 D IS=1e-10 N=0.4 RS=3e-06
RL 5 10 1
FI2 7 9 VFI2 -1
VFI2 4 0 0
EV16 10 0 9 7 1
CAP 11 10 3.2465e-10
FI1 7 9 VFI1 -1
VFI1 11 6 0
RCAP 6 10 1
D4 0 6 MD3
* Default values used in MD3:
*   EG=1.11 XTI=3.0 TT=0 CJO=0
*   RS=0 BV=infinite IBV=1mA
.MODEL MD3 D IS=1e-10 N=0.4
.ENDS
******************************************************************
******************************************************************
.SUBCKT irfi3710 1 2 3
* Model generated on Mar  1, 96
* Model format: SPICE3
* Symmetry POWER MOS Model (Version 1.0)
* External Node Designations
* Node 1 -> Drain
* Node 2 -> Gate
* Node 3 -> Source
M1 9 7 8 8 MM L=100u W=100u
* Default values used in MM:
* The voltage-dependent capacitances are
* not included. Other default values are:
*   RS=0 RD=0 LD=0 CBD=0 CBS=0 CGBO=0
.MODEL MM NMOS LEVEL=1 IS=1e-32
+VTO=3.67654 LAMBDA=0 KP=36.0448
+CGSO=2.79534e-05 CGDO=1.13738e-06
RS 8 3 0.00844724
D1 3 1 MD
.MODEL MD D IS=2.32268e-12 RS=0.00536465 N=1.01621 BV=100
+IBV=10 EG=1.2 XTI=3.07373 TT=2.0001e-05
+CJO=1.85912e-09 VJ=0.523841 M=0.46058 FC=0.1
RDS 3 1 1e+06
RD 9 1 0.00708389
RG 2 7 3.44341
D2 4 5 MD1
* Default values used in MD1:
*   RS=0 EG=1.11 XTI=3.0 TT=0
*   BV=infinite IBV=1mA
.MODEL MD1 D IS=1e-32 N=50
+CJO=4.18533e-09 VJ=0.5 M=0.751879 FC=1e-08
D3 0 5 MD2
* Default values used in MD2:
*   EG=1.11 XTI=3.0 TT=0 CJO=0
*   BV=infinite IBV=1mA
.MODEL MD2 D IS=1e-10 N=0.400231 RS=3e-06
RL 5 10 1
FI2 7 9 VFI2 -1
VFI2 4 0 0
EV16 10 0 9 7 1
CAP 11 10 6.90085e-09
FI1 7 9 VFI1 -1
VFI1 11 6 0
RCAP 6 10 1
D4 0 6 MD3
* Default values used in MD3:
*   EG=1.11 XTI=3.0 TT=0 CJO=0
*   RS=0 BV=infinite IBV=1mA
.MODEL MD3 D IS=1e-10 N=0.400231
.ENDS
******************************************************************
.SUBCKT irfi520n 1 2 3
* Model generated on Mar 11, 96
* Model format: SPICE3
* Symmetry POWER MOS Model (Version 1.0)
* External Node Designations
* Node 1 -> Drain
* Node 2 -> Gate
* Node 3 -> Source
M1 9 7 8 8 MM L=100u W=100u
* Default values used in MM:
* The voltage-dependent capacitances are
* not included. Other default values are:
*   RS=0 RD=0 LD=0 CBD=0 CBS=0 CGBO=0
.MODEL MM NMOS LEVEL=1 IS=1e-32
+VTO=3.6518 LAMBDA=0.000129464 KP=13.2792
+CGSO=2.79793e-06 CGDO=1.50708e-07
RS 8 3 0.137117
D1 3 1 MD
.MODEL MD D IS=3.1198e-10 RS=0.0109041 N=1.37093 BV=100
+IBV=10 EG=1.18113 XTI=3.00183 TT=0
+CJO=1.7838e-10 VJ=1.03544 M=0.478629 FC=0.493388
RDS 3 1 1e+06
RD 9 1 0.0210693
RG 2 7 1.77799
D2 4 5 MD1
* Default values used in MD1:
*   RS=0 EG=1.11 XTI=3.0 TT=0
*   BV=infinite IBV=1mA
.MODEL MD1 D IS=1e-32 N=50
+CJO=4.28208e-10 VJ=0.5 M=0.604862 FC=1e-08
D3 0 5 MD2
* Default values used in MD2:
*   EG=1.11 XTI=3.0 TT=0 CJO=0
*   BV=infinite IBV=1mA
.MODEL MD2 D IS=1e-10 N=0.440649 RS=3e-06
RL 5 10 1
FI2 7 9 VFI2 -1
VFI2 4 0 0
EV16 10 0 9 7 1
CAP 11 10 1.04201e-09
FI1 7 9 VFI1 -1
VFI1 11 6 0
RCAP 6 10 1
D4 0 6 MD3
* Default values used in MD3:
*   EG=1.11 XTI=3.0 TT=0 CJO=0
*   RS=0 BV=infinite IBV=1mA
.MODEL MD3 D IS=1e-10 N=0.440649
.ENDS
******************************************************************
.SUBCKT irfi530n 1 2 3
* Model generated on Feb 27, 96
* Model format: SPICE3
* Symmetry POWER MOS Model (Version 1.0)
* External Node Designations
* Node 1 -> Drain
* Node 2 -> Gate
* Node 3 -> Source
M1 9 7 8 8 MM L=100u W=100u
* Default values used in MM:
* The voltage-dependent capacitances are
* not included. Other default values are:
*   RS=0 RD=0 LD=0 CBD=0 CBS=0 CGBO=0
.MODEL MM NMOS LEVEL=1 IS=1e-32
+VTO=3.18351 LAMBDA=0 KP=5.39987
+CGSO=5.66514e-06 CGDO=1e-11
RS 8 3 0.0185667
D1 3 1 MD
.MODEL MD D IS=6.31818e-17 RS=0.0118218 N=0.759752 BV=100