*NDB4050 ELECTRICAL MODEL (TO-263 N-Ch DMOS)
* ----------------------
.SUBCKT  NDB4050  20  10  30
Rg  10  1  3
M1   2  1  3   3   DMOS    L=1u   W=1u
.MODEL  DMOS  NMOS(VTO=3.083632  KP=6.172
+  THETA=0.056 VMAX=1.9E5  LEVEL=3)
Cgs   1  3   310p
Rd   20  4    7m 
Dds   3  4   DDS
.MODEL   DDS   D(BV=50.08   M=0.34  CJO=312p   VJ=1.2)
Dbody   3   20   DBODY
.MODEL   DBODY   D(IS=1.4E-13   N=1   RS=116m   TT=52n)
Ra    4    2    31m 
Rs    3    5    2m
Ls    5    30   5n
M2    1    8   6   6   INTER
E2    8    6   4   1   2
.MODEL   INTER   NMOS(VTO=0  KP=10   LEVEL=1)
Cgdmax   7   4    600p
Rcgd     7   4    10meg
Dgd      6   4    DGD
Rdgd     4   6    10meg
.MODEL    DGD   D(M=0.54  CJO=900p   VJ=0.214)
M3     7   9   1   1   INTER
E3     9   1   4   1   -2
.ENDS NDB4050
**********************************************************************
* NDB405A ELECTRICAL MODEL (TO-263 N-Ch DMOS)
* ------------------------
.SUBCKT  NDB405A  20  10  30
Rg  10  1  1
M1   2  1  3   3   DMOS    L=1u   W=1u
.MODEL  DMOS  NMOS(VTO=3.382048  KP=6.172
+ THETA=0.056 VMAX=1.9E5  LEVEL=3)
Cgs   1  3   310p
Rd   20  4   7.24m 
Dds   3  4   DDS
.MODEL   DDS   D(BV=50.08   M=0.34  CJO=312p   VJ=1.2)
Dbody   3   20   DBODY
.MODEL   DBODY   D(IS=1.4E-13   N=1   RS=116m   TT=52n)
Ra    4    2    33m 
Rs    3    5    2m
Ls    5    30   5n
M2    1    8   6   6   INTER
E2    8    6   4   1   2
.MODEL   INTER   NMOS(VTO=0  KP=10   LEVEL=1)
Cgdmax   7   4    600p
Rcgd     7   4    10meg
Dgd      6   4    DGD
Rdgd     4   6    10meg
.MODEL    DGD   D(M=0.54   CJO=900p   VJ=0.214)
M3     7   9   1   1   INTER
E3     9   1   4   1   -2
.ENDS NDB405A
*********************************************************************
* NDB405AEL ELECTRICAL MODEL (TO-263 N-Ch DMOS)
* -------------------------
.SUBCKT  NDB405AEL  20  10  30
Rg  10  1  1
M1   2  1  3   3   DMOS    L=1u   W=1u
.MODEL  DMOS  NMOS(VTO=1.293136  KP=8.466
+ THETA=0.086 VMAX=2.2E5  LEVEL=3)
Cgs   1  3   500p
Rd   20  4   8m 
Dds   3  4   DDS
.MODEL   DDS   D(BV=48.92376   M=0.36  CJO=303p   VJ=1.18)
Dbody   3   20   DBODY
.MODEL   DBODY   D(IS=1.4E-13   N=1   RS=119m   TT=53n)
Ra    4    2    25.3m 
Rs    3    5    2m
Ls    5    30   5n
M2    1    8   6   6   INTER
E2    8    6   4   1   2
.MODEL   INTER   NMOS(VTO=0  KP=10   LEVEL=1)
Cgdmax   7   4    1100p
Rcgd     7   4    10meg
Dgd      6   4    DGD
Rdgd     4   6    10meg
.MODEL    DGD   D(M=0.54   CJO=2500p   VJ=0.214)
M3     7   9   1   1   INTER
E3     9   1   4   1   -2
.ENDS NDB405AEL
*********************************************************************
* NDB405AL ELECTRICAL MODEL (TO-263 N-Ch DMOS)
* -------------------------
.SUBCKT  NDB405AL  20  10  30
Rg  10  1  1
M1   2  1  3   3   DMOS    L=1u   W=1u
.MODEL  DMOS  NMOS(VTO=1.293136  KP=8.466
+ THETA=0.086  VMAX=2.2E5  LEVEL=3)
Cgs   1  3   500p
Rd   20  4   8m 
Dds   3  4   DDS
.MODEL   DDS   D(BV={50*{0.00088*TEMP+0.978}}   M=0.36  CJO=303p   VJ=1.18)
Dbody   3   20   DBODY
.MODEL   DBODY   D(IS=1.4E-13   N=1   RS=119m   TT=53n)
Ra    4    2    25.3m 
Rs    3    5    2m
Ls    5    30   5n
M2    1    8   6   6   INTER
E2    8    6   4   1   2
.MODEL   INTER   NMOS(VTO=0  KP=10   LEVEL=1)
Cgdmax   7   4    1100p
Rcgd     7   4    10meg
Dgd      6   4    DGD
Rdgd     4   6    10meg
.MODEL    DGD   D(M=0.54   CJO=2500p   VJ=0.214)
M3     7   9   1   1   INTER
E3     9   1   4   1   -2
.ENDS NDB405AL
*************************************************************************
* NDB405B ELECTRICAL MODEL (TO-263 N-Ch DMOS)
* ------------------------
.SUBCKT  NDB405B  20  10  30
Rg  10  1  1
M1   2  1  3   3   DMOS    L=1u   W=1u
.MODEL  DMOS  NMOS(VTO=3.382048  KP=6.172
+  THETA=0.056  VMAX=1.9E5  LEVEL=3)
Cgs   1  3   310p
Rd   20  4   13m 
Dds   3  4   DDS
.MODEL   DDS   D(BV=50.08   M=0.34  CJO=312p   VJ=1.2)
Dbody   3   20   DBODY
.MODEL   DBODY   D(IS=1.4E-13   N=1   RS=116m   TT=52n)
Ra    4    2    55m 
Rs    3    5    2m
Ls    5    30   5n
M2    1    8   6   6   INTER
E2    8    6   4   1   2
.MODEL   INTER   NMOS(VTO=0  KP=10   LEVEL=1)
Cgdmax   7   4    600p
Rcgd     7   4    10meg
Dgd      6   4    DGD
Rdgd     4   6    10meg
.MODEL    DGD   D(M=0.54   CJO=900p   VJ=0.214)
M3     7   9   1   1   INTER
E3     9   1   4   1   -2
.ENDS NDB405B
***********************************************************************
* NDB405BEL ELECTRICAL MODEL (TO-263 N-Ch DMOS)
* --------------------------
.SUBCKT  NDB405BEL  20  10  30
Rg  10  1  1
M1   2  1  3   3   DMOS    L=1u   W=1u
.MODEL  DMOS  NMOS(VTO=1.293136 KP=8.466
+ THETA=0.086  VMAX=2.2E5  LEVEL=3)
Cgs   1  3   500p
Rd   20  4   14m 
Dds   3  4   DDS
.MODEL   DDS   D(BV=50.088   M=0.36  CJO=303p   VJ=1.18)
Dbody   3   20   DBODY
.MODEL   DBODY   D(IS=1.4E-13   N=1   RS=119m   TT=53n)
Ra    4    2    47m 
Rs    3    5    2m
Ls    5    30   5n
M2    1    8   6   6   INTER
E2    8    6   4   1   2
.MODEL   INTER   NMOS(VTO=0  KP=10   LEVEL=1)
Cgdmax   7   4    1100p
Rcgd     7   4    10meg
Dgd      6   4    DGD
Rdgd     4   6    10meg
.MODEL    DGD   D(M=0.54   CJO=2500p   VJ=0.214)
M3     7   9   1   1   INTER
E3     9   1   4   1   -2
.ENDS NDB405BEL
***********************************************************************
* NDB405BL ELECTRICAL MODEL (TO-263 N-Ch DMOS)
* ------------------------
.SUBCKT  NDB405BL  20  10  30
Rg  10  1  1
M1   2  1  3   3   DMOS    L=1u   W=1u
.MODEL  DMOS  NMOS(VTO=1.293136  KP=8.466
+  THETA=0.086 VMAX=2.2E5  LEVEL=3)
Cgs   1  3   500p
Rd   20  4   14m 
Dds   3  4   DDS
.MODEL   DDS   D(BV=50.088   M=0.36  CJO=303p   VJ=1.18)
Dbody   3   20   DBODY
.MODEL   DBODY   D(IS=1.4E-13   N=1   RS=119m   TT=53n)
Ra    4    2    47m 
Rs    3    5    2m
Ls    5    30   5n
M2    1    8   6   6   INTER
E2    8    6   4   1   2
.MODEL   INTER   NMOS(VTO=0  KP=10   LEVEL=1)
Cgdmax   7   4    1100p
Rcgd     7   4    10meg
Dgd      6   4    DGD
Rdgd     4   6    10meg
.MODEL    DGD   D(M=0.54   CJO=2500p   VJ=0.214)
M3     7   9   1   1   INTER
E3     9   1   4   1   -2
.ENDS NDB405BL
********************************************************************
*NDB4060 ELECTRICAL MODEL (TO-263 N-Ch DMOS)
* ----------------------
.SUBCKT  NDB4060  20  10  30
Rg  10  1  3
M1   2  1  3   3   DMOS    L=1u   W=1u
.MODEL  DMOS  NMOS(VTO=3.083632  KP=6.928
+  THETA=0.056  VMAX=1.9E5  LEVEL=3)
Cgs   1  3   310p
Rd   20  4    7m 
Dds   3  4   DDS
.MODEL   DDS   D(BV=60.096   M=0.34  CJO=312p   VJ=1.2)
Dbody   3   20   DBODY
.MODEL   DBODY   D(IS=1.4E-13   N=1   RS=116m   TT=52n)
Ra    4    2    31m 
Rs    3    5    2m
Ls    5    30   5n
M2    1    8   6   6   INTER
E2    8    6   4   1   2
.MODEL   INTER   NMOS(VTO=0  KP=10   LEVEL=1)
Cgdmax   7   4    600p
Rcgd     7   4    10meg
Dgd      6   4    DGD
Rdgd     4   6    10meg
.MODEL    DGD   D(M=0.54  CJO=900p   VJ=0.214)
M3     7   9   1   1   INTER
E3     9   1   4   1   -2
.ENDS NDB4060
**********************************************************************
* NDB406A ELECTRICAL MODEL (TO-263 N-Ch DMOS)
* ------------------------
.SUBCKT  NDB406A  20  10  30
Rg  10  1  3
M1   2  1  3   3   DMOS    L=1u   W=1u
.MODEL  DMOS  NMOS(VTO=3.382048  KP=6.928
+ THETA=0.056 VMAX=1.9E5  LEVEL=3)
Cgs   1  3   310p
Rd   20  4    7.24m 
Dds   3  4   DDS
.MODEL   DDS   D(BV=60.096   M=0.34  CJO=312p   VJ=1.2)
Dbody   3   20   DBODY
.MODEL   DBODY   D(IS=1.4E-13   N=1   RS=116m   TT=52n)
Ra    4    2    33m 
Rs    3    5    2m
Ls    5    30   5n
M2    1    8   6   6   INTER
E2    8    6   4   1   2
.MODEL   INTER   NMOS(VTO=0  KP=10   LEVEL=1)
Cgdmax   7   4    600p
Rcgd     7   4    10meg
Dgd      6   4    DGD
Rdgd     4   6    10meg
.MODEL    DGD   D(M=0.54  CJO=900p   VJ=0.214)
M3     7   9   1   1   INTER
E3     9   1   4   1   -2
.ENDS NDB406A
*********************************************************************
* NDB406AEL ELECTRICAL MODEL (TO-263 N-Ch DMOS)
* --------------------------
.SUBCKT  NDB406AEL  20  10  30
Rg  10  1  3
M1   2  1  3   3   DMOS    L=1u   W=1u
.MODEL  DMOS  NMOS(VTO=1.293136  KP=9.384
+ THETA=0.086  VMAX=2.2E5  LEVEL=3)
Cgs   1  3   500p
Rd   20  4    8m 
Dds   3  4   DDS
.MODEL   DDS   D(BV=60.1056   M=0.36  CJO=303p   VJ=1.18)
Dbody   3   20   DBODY
.MODEL   DBODY   D(IS=1.4E-13   N=1   RS=119m   TT=53n)
Ra    4    2    25.3m 
Rs    3    5    2m
Ls    5    30   5n
M2    1    8   6   6   INTER
E2    8    6   4   1   2
.MODEL   INTER   NMOS(VTO=0  KP=10   LEVEL=1)
Cgdmax   7   4    1100p
Rcgd     7   4    10meg
Dgd      6   4    DGD
Rdgd     4   6    10meg
.MODEL    DGD   D(M=0.51  CJO=2500p   VJ=0.047)
M3     7   9   1   1   INTER
E3     9   1   4   1   -2
.ENDS NDB406AEL
************************************************************************
* NDB406AL ELECTRICAL MODEL (TO-263 N-Ch DMOS)
* -------------------------
.SUBCKT  NDB406AL  20  10  30
Rg  10  1  3
M1   2  1  3   3   DMOS    L=1u   W=1u
.MODEL  DMOS  NMOS(VTO=1.293136  KP=8.466
+  THETA=0.086  VMAX=2.2E5  LEVEL=3)
Cgs   1  3   500p
Rd   20  4    8m 
Dds   3  4   DDS
.MODEL   DDS   D(BV=60.1056   M=0.36  CJO=303p   VJ=1.18)
Dbody   3   20   DBODY
.MODEL   DBODY   D(IS=1.4E-13   N=1   RS=119m   TT=53n)
Ra    4    2    25.3m 
Rs    3    5    2m
Ls    5    30   5n
M2    1    8   6   6   INTER
E2    8    6   4   1   2
.MODEL   INTER   NMOS(VTO=0  KP=10   LEVEL=1)
Cgdmax   7   4    1100p
Rcgd     7   4    10meg
Dgd      6   4    DGD
Rdgd     4   6    10meg
.MODEL    DGD   D(M=0.51  CJO=2500p   VJ=0.047)
M3     7   9   1   1   INTER
E3     9   1   4   1   -2
.ENDS NDB406AL
**********************************************************************
* NDB406B ELECTRICAL MODEL (TO-263 N-Ch DMOS)
* ------------------------
.SUBCKT  NDB406B  20  10  30
Rg  10  1  3
M1   2  1  3   3   DMOS    L=1u   W=1u
.MODEL  DMOS  NMOS(VTO=3.382048  KP=6.928
+  THETA=0.056 VMAX=1.9E5  LEVEL=3)
Cgs   1  3   310p
Rd   20  4    13m 
Dds   3  4   DDS
.MODEL   DDS   D(BV=60.096   M=0.34  CJO=312p   VJ=1.2)
Dbody   3   20   DBODY
.MODEL   DBODY   D(IS=1.4E-13   N=1   RS=116m   TT=52n)
Ra    4    2    55m 
Rs    3    5    2m
Ls    5    30   5n
M2    1    8   6   6   INTER
E2    8    6   4   1   2
.MODEL   INTER   NMOS(VTO=0  KP=10   LEVEL=1)
Cgdmax   7   4    600p
Rcgd     7   4    10meg
Dgd      6   4    DGD
Rdgd     4   6    10meg
.MODEL    DGD   D(M=0.54  CJO=900p   VJ=0.214)
M3     7   9   1   1   INTER
E3     9   1   4   1   -2
.ENDS NDB406B
*********************************************************************
* NDB406BEL ELECTRICAL MODEL
* --------------------------
.SUBCKT  NDB406BEL  20  10  30
Rg  10  1  3
M1   2  1  3   3   DMOS    L=1u   W=1u
.MODEL  DMOS  NMOS(VTO=1.293136  KP=8.466
+ THETA=0.086 VMAX=2.2E5  LEVEL=3)
Cgs   1  3   500p
Rd   20  4    14m 
Dds   3  4   DDS
.MODEL   DDS   D(BV=60.1056   M=0.36  CJO=303p   VJ=1.18)
Dbody   3   20   DBODY
.MODEL   DBODY   D(IS=1.4E-13   N=1   RS=119m   TT=53n)
Ra    4    2    47m 
Rs    3    5    2m
Ls    5    30   5n
M2    1    8   6   6   INTER
E2    8    6   4   1   2
.MODEL   INTER   NMOS(VTO=0  KP=10   LEVEL=1)
Cgdmax   7   4    1100p
Rcgd     7   4    10meg
Dgd      6   4    DGD
Rdgd     4   6    10meg
.MODEL    DGD   D(M=0.51  CJO=2500p   VJ=0.047)
M3     7   9   1   1   INTER
E3     9   1   4   1   -2
.ENDS NDB406BEL
**********************************************************************
* NDB406BL ELECTRICAL MODEL (TO-263 N-Ch DMOS)
* -------------------------
.SUBCKT  NDB406BL  20  10  30
Rg  10  1  3
M1   2  1  3   3   DMOS    L=1u   W=1u
.MODEL  DMOS  NMOS(VTO=1.293136  KP=8.466
+  THETA=0.086 VMAX=2.2E5  LEVEL=3)
Cgs   1  3   500p
Rd   20  4    14m 
Dds   3  4   DDS
.MODEL   DDS   D(BV=60.1056   M=0.36  CJO=303p   VJ=1.18)
Dbody   3   20   DBODY
.MODEL   DBODY   D(IS=1.4E-13   N=1   RS=119m   TT=53n)
Ra    4    2    47m 
Rs    3    5    2m
Ls    5    30   5n
M2    1    8   6   6   INTER
E2    8    6   4   1   2
.MODEL   INTER   NMOS(VTO=0  KP=10   LEVEL=1)
Cgdmax   7   4    1100p
Rcgd     7   4    10meg
Dgd      6   4    DGD
Rdgd     4   6    10meg
.MODEL    DGD   D(M=0.51  CJO=2500p   VJ=0.047)
M3     7   9   1   1   INTER
E3     9   1   4   1   -2
.ENDS NDB406BL
***************************************************************************
* NDB408A ELECTRICAL MODEL (TO-263 N-Ch DMOS)
* ------------------------
.SUBCKT  NDB408A  20  10  30
Rg  10  1  1
M1   2  1  3   3   DMOS    L=1u   W=1u
.MODEL  DMOS  NMOS(VTO=3.186178  KP=6.172
+  THETA=0.056  VMAX=1.5E5  LEVEL=3)
Cgs   1  3   340p
Rd   20  4   33m 
Dds   3  4   DDS
.MODEL   DDS   D(BV=80.1536   M=0.3  CJO=1142p   VJ=0.9)
Dbody   3   20   DBODY
.MODEL   DBODY   D(IS=1.4E-13   N=1   RS=20m   TT=80n)
Ra    4    2    39m 
Rs    3    5    2m
Ls    5    30   5n
M2    1    8   6   6   INTER
E2    8    6   4   1   2
.MODEL   INTER   NMOS(VTO=0  KP=10   LEVEL=1)
Cgdmax   7   4    600p
Rcgd     7   4    10meg
Dgd      6   4    DGD
Rdgd     4   6    10meg
.MODEL    DGD   D(M=0.54   CJO=620p   VJ=0.214)
M3     7   9   1   1   INTER
E3     9   1   4   1   -2
.ENDS NDB408A
**********************************************************************
* NDB408AE ELECTRICAL MODEL (TO-263 N-Ch DMOS)
* -------------------------
.SUBCKT  NDB408AE  20  10  30
Rg  10  1  1
M1   2  1  3   3   DMOS    L=1u   W=1u
.MODEL  DMOS  NMOS(VTO=3.186176  KP=6.172
+  THETA=0.056  VMAX=1.5E5  LEVEL=3)
Cgs   1  3   340p
Rd   20  4   33m 
Dds   3  4   DDS
.MODEL   DDS   D(BV=80.1536  M=0.3  CJO=1142p   VJ=0.9)
Dbody   3   20   DBODY
.MODEL   DBODY   D(IS=1.4E-13   N=1   RS=20m   TT=80n)
Ra    4    2    39m 
Rs    3    5    2m
Ls    5    30   5n
M2    1    8   6   6   INTER
E2    8    6   4   1   2
.MODEL   INTER   NMOS(VTO=0  KP=10   LEVEL=1)
Cgdmax   7   4    600p
Rcgd     7   4    10meg
Dgd      6   4    DGD
Rdgd     4   6    10meg
.MODEL    DGD   D(M=0.54   CJO=620p   VJ=0.214)
M3     7   9   1   1   INTER
E3     9   1   4   1   -2
.ENDS NDB408AE
*************************************************************************
* NDB408B ELECTRICAL MODEL (TO-263 N-Ch DMOS)
* ------------------------
.SUBCKT  NDB408B  20  10  30
Rg  10  1  1
M1   2  1  3   3   DMOS    L=1u   W=1u
.MODEL  DMOS  NMOS(VTO=3.0186176  KP=6.172
+  THETA=0.056  VMAX=1.5E5  LEVEL=3)
Cgs   1  3   340p
Rd   20  4   38m 
Dds   3  4   DDS
.MODEL   DDS   D(BV=80.1536   M=0.3  CJO=1142p   VJ=0.9)
Dbody   3   20   DBODY
.MODEL   DBODY   D(IS=1.4E-13   N=1   RS=20m   TT=80n)
Ra    4    2    44m 
Rs    3    5    2m
Ls    5    30   5n
M2    1    8   6   6   INTER
E2    8    6   4   1   2
.MODEL   INTER   NMOS(VTO=0  KP=10   LEVEL=1)
Cgdmax   7   4    600p
Rcgd     7   4    10meg
Dgd      6   4    DGD
Rdgd     4   6    10meg
.MODEL    DGD   D(M=0.54   CJO=620p   VJ=0.214)
M3     7   9   1   1   INTER
E3     9   1   4   1   -2
.ENDS NDB408B
***********************************************************************
* NDB408BE ELECTRICAL MODEL (TO-263 N-Ch DMOS)
* -------------------------
.SUBCKT  NDB408BE  20  10  30
Rg  10  1  1
M1   2  1  3   3   DMOS    L=1u   W=1u
.MODEL  DMOS  NMOS(VTO=3.186176  KP=6.172
+  THETA=0.056  VMAX=1.5E5  LEVEL=3)
Cgs   1  3   340p
Rd   20  4   38m 
Dds   3  4   DDS
.MODEL   DDS   D(BV=80.1536   M=0.3  CJO=1142p   VJ=0.9)
Dbody   3   20   DBODY
.MODEL   DBODY   D(IS=1.4E-13   N=1   RS=20m   TT=80n)
Ra    4    2    44m 
Rs    3    5    2m
Ls    5    30   5n
M2    1    8   6   6   INTER
E2    8    6   4   1   2
.MODEL   INTER   NMOS(VTO=0  KP=10   LEVEL=1)
Cgdmax   7   4    600p
Rcgd     7   4    10meg
Dgd      6   4    DGD
Rdgd     4   6    10meg
.MODEL    DGD   D(M=0.54   CJO=620p   VJ=0.214)
M3     7   9   1   1   INTER
E3     9   1   4   1   -2
.ENDS NDB408BE
**********************************************************************
* NDB505A ELECTRICAL MODEL (TO-263 N-Ch DMOS)
* ------------------------
.SUBCKT  NDB505A  20  10  30
Rg  10  1  3
M1   2  1  3   3   DMOS    L=1u   W=1u
.MODEL  DMOS  NMOS(VTO=3.085616  KP=9.964
+ THETA=0.056 VMAX=1.6E5  LEVEL=3)
Cgs   1  3   621p
Rd   20  4   6.7m 
Dds   3  4   DDS
.MODEL   DDS   D(BV=50.088   M=0.33  CJO=459p   VJ=1.05)
Dbody   3   20   DBODY
.MODEL   DBODY   D(IS=1.4E-13   N=1   RS=70.8m   TT=60n)
Ra    4    2    13.2m 
Rs    3    5    2m
Ls    5    30   5n
M2    1    8   6   6   INTER
E2    8    6   4   1   2
.MODEL   INTER   NMOS(VTO=0  KP=10   LEVEL=1)
Cgdmax  7   4    1200p
Rcgd     7   4    10meg
Dgd      6   4    DGD
Rdgd     4   6    10meg
.MODEL    DGD   D(M=0.53   CJO=1600p   VJ=0.23)
M3     7   9   1   1   INTER
E3     9   1   4   1   -2
.ENDS NDB505A
***********************************************************************
* NDB505AEL ELECTRICAL MODEL (TO-263 N-Ch DMOS)
* --------------------------
.SUBCKT  NDB505AEL  20  10  30
Rg  10  1  3
M1   2  1  3   3   DMOS    L=1u   W=1u
.MODEL  DMOS  NMOS(VTO=1.58976  KP=14.45
+ THETA=0.086  VMAX=2.1E5  LEVEL=3)
Cgs   1    3    734p
Rd    20   4    3.5m 
Dds   3    4    DDS
.MODEL   DDS   D(BV=50.088   M=0.35  CJO=537p   VJ=1.16)
Dbody   3   20   DBODY
.MODEL   DBODY   D(IS=1.4E-13   N=1   RS=70.8m   TT=70n)
Ra    4    2    14.9m 
Rs    3    5    2m
Ls    5    30   5n
M2    1    8    6   6   INTER
E2    8    6    4   1   2
.MODEL   INTER   NMOS(VTO=0  KP=10   LEVEL=1)
Cgdmax   7   4    2500p
Rcgd     7   4    10meg
Dgd      6   4    DGD
Rdgd     4   6    10meg
.MODEL    DGD   D(M=0.54   CJO=1600p   VJ=0.104)
M3     7   9   1   1   INTER
E3     9   1   4   1   -2
.ENDS NDB505AEL
*************************************************************************
* NDB505B ELECTRICAL MODEL (TO-263 N-Ch DMOS)
* ------------------------
.SUBCKT  NDB505B  20  10  30
Rg  10  1  3
M1   2  1  3   3   DMOS    L=1u   W=1u
.MODEL  DMOS  NMOS(VTO=3.085616  KP=9.964
+ THETA=0.056 VMAX=1.6E5  LEVEL=3)
Cgs   1  3   621p
Rd   20  4   12m 
Dds   3  4   DDS
.MODEL   DDS   D(BV=50.088   M=0.33  CJO=459p   VJ=1.05)
Dbody   3   20   DBODY
.MODEL   DBODY   D(IS=1.4E-13   N=1   RS=70.8m   TT=60n)
Ra    4    2    18m O0416
Rs    3    5    2m
Ls    5    30   5n
M2    1    8   6   6   INTER
E2    8    6   4   1   2
.MODEL   INTER   NMOS(VTO=0  KP=10   LEVEL=1)
Cgdmax  7   4    1200p
Rcgd     7   4    10meg
Dgd      6   4    DGD
Rdgd     4   6    10meg
.MODEL    DGD   D(M=0.53   CJO=1600p   VJ=0.23)
M3     7   9   1   1   INTER
E3     9   1   4   1   -2
.ENDS NDB505B
***********************************************************************
* NDB505BEL ELECTRICAL MODEL (TO-263 N-Ch DMOS)
* --------------------------
.SUBCKT  NDB505BEL  20  10  30
Rg  10  1  3
M1   2  1  3   3   DMOS    L=1u   W=1u
.MODEL  DMOS  NMOS(VTO=1.627776  KP=14.25
+  THETA=0.086 VMAX=2.1E5  LEVEL=3)
Cgs   1    3    734p
Rd    20   4    6m 
Dds   3    4    DDS
.MODEL   DDS   D(BV=50.088   M=0.35  CJO=537p   VJ=1.16)
Dbody   3   20   DBODY
.MODEL   DBODY   D(IS=1.4E-13   N=1   RS=70.8m   TT=70n)
Ra    4    2    22m 
Rs    3    5    2m
Ls    5    30   5n
M2    1    8    6   6   INTER
E2    8    6    4   1   2
.MODEL   INTER   NMOS(VTO=0  KP=10   LEVEL=1)
Cgdmax   7   4    2500p
Rcgd     7   4    10meg
Dgd      6   4    DGD
Rdgd     4   6    10meg
.MODEL    DGD   D(M=0.54   CJO=1600p   VJ=0.104)
M3     7   9   1   1   INTER
E3     9   1   4   1   -2
.ENDS NDB505BEL
***********************************************************************
* NDB505BL ELECTRICAL MODEL (TO-263 N-Ch DMOS)
* -------------------------
.SUBCKT  NDB505BL  20  10  30
Rg  10  1  3
M1   2  1  3   3   DMOS    L=1u   W=1u
.MODEL  DMOS  NMOS(VTO=1.627776  KP=14.575
+  THETA=0.086 VMAX=2.1E5  LEVEL=3)
Cgs   1    3    734p
Rd    20   4    6m 
Dds   3    4    DDS
.MODEL   DDS   D(BV=50.088   M=0.35  CJO=537p   VJ=1.16)
Dbody   3   20   DBODY
.MODEL   DBODY   D(IS=1.4E-13   N=1   RS=70.8m   TT=70n)
Ra    4    2    22m 
Rs    3    5    2m
Ls    5    30   5n
M2    1    8    6   6   INTER
E2    8    6    4   1   2
.MODEL   INTER   NMOS(VTO=0  KP=10   LEVEL=1)
Cgdmax   7   4    2500p
Rcgd     7   4    10meg
Dgd      6   4    DGD
Rdgd     4   6    10meg
.MODEL    DGD   D(M=0.54   CJO=1600p   VJ=0.104)
M3     7   9   1   1   INTER
E3     9   1   4   1   -2
.ENDS NDB505BL
**********************************************************************
* NDB506A ELECTRICAL MODEL (TO-263 N-Ch DMOS)
* ------------------------
.SUBCKT  NDB506A  20  10  30
Rg  10  1  3
M1   2  1  3   3   DMOS    L=1u   W=1u
.MODEL  DMOS  NMOS(VTO=3.085616  KP=9.964
+  THETA=0.056  VMAX=1.6E5  LEVEL=3)
Cgs   1  3   621p
Rd   20  4   6.7m 
Dds   3  4   DDS
.MODEL   DDS   D(BV=60.1056   M=0.33  CJO=459p   VJ=1.05)
Dbody   3   20   DBODY
.MODEL   DBODY   D(IS=1.4E-13   N=1   RS=70.8m   TT=60n)
Ra    4    2    13.2m 
Rs    3    5    2m
Ls    5    30   5n
M2    1    8   6   6   INTER
E2    8    6   4   1   2
.MODEL   INTER   NMOS(VTO=0  KP=10   LEVEL=1)
Cgdmax  7   4    1200p
Rcgd     7   4    10meg
Dgd      6   4    DGD
Rdgd     4   6    10meg
.MODEL    DGD   D(M=0.53   CJO=1600p   VJ=0.23)
M3     7   9   1   1   INTER
E3     9   1   4   1   -2
.ENDS NDB506A
**********************************************************************
* NDB506AEL ELECTRICAL MODEL (TO-263 N-Ch DMOS)
* --------------------------
.SUBCKT  NDB506AEL  20  10  30
Rg  10  1  3
M1   2  1  3   3   DMOS    L=1u   W=1u
.MODEL  DMOS  NMOS(VTO=1.58976  KP=14.45
+  THETA=0.086 VMAX=2.1E5  LEVEL=3)
Cgs   1    3    734p
Rd    20   4    3.5m 
Dds   3    4    DDS
.MODEL   DDS   D(BV=60.1056   M=0.35  CJO=537p   VJ=1.16)
Dbody   3   20   DBODY
.MODEL   DBODY   D(IS=1.4E-13   N=1   RS=70.8m   TT=70n)
Ra    4    2    14.9m 
Rs    3    5    2m
Ls    5    30   5n
M2    1    8    6   6   INTER
E2    8    6    4   1   2
.MODEL   INTER   NMOS(VTO=0  KP=10   LEVEL=1)
Cgdmax   7   4    2500p
Rcgd     7   4    10meg
Dgd      6   4    DGD
Rdgd     4   6    10meg
.MODEL    DGD   D(M=0.54   CJO=1600p   VJ=0.104)
M3     7   9   1   1   INTER
E3     9   1   4   1   -2
.ENDS NDB506AEL
*************************************************************************
* NDB506AL ELECTRICAL MODEL (TO-263 N-Ch DMOS)
* -------------------------
.SUBCKT  NDB506AL  20  10  30
Rg  10  1  3
M1   2  1  3   3   DMOS    L=1u   W=1u
.MODEL  DMOS  NMOS(VTO=1.58976  KP=14.45
+  THETA=0.086  VMAX=2.1E5  LEVEL=3)
Cgs   1    3    734p
Rd    20   4    3.5m 
Dds   3    4    DDS
.MODEL   DDS   D(BV=60.1056   M=0.35  CJO=537p   VJ=1.16)
Dbody   3   20   DBODY
.MODEL   DBODY   D(IS=1.4E-13   N=1   RS=70.8m   TT=70n)
Ra    4    2    14.9m 
Rs    3    5    2m
Ls    5    30   5n
M2    1    8    6   6   INTER
E2    8    6    4   1   2
.MODEL   INTER   NMOS(VTO=0  KP=10   LEVEL=1)
Cgdmax   7   4    2500p
Rcgd     7   4    10meg
Dgd      6   4    DGD
Rdgd     4   6    10meg
.MODEL    DGD   D(M=0.54   CJO=1600p   VJ=0.104)
M3     7   9   1   1   INTER
E3     9   1   4   1   -2
.ENDS NDB506AL
************************************************************************
* NDB506B ELECTRICAL MODEL (TO-263 N-Ch DMOS)
* ------------------------
.SUBCKT  NDB506B  20  10  30
Rg  10  1  3
M1   2  1  3   3   DMOS    L=1u   W=1u
.MODEL  DMOS  NMOS(VTO=3.085616  KP=9.964
+  THETA=0.056  VMAX=1.6E5  LEVEL=3)
Cgs   1  3   621p
Rd   20  4   12m 
Dds   3  4   DDS
.MODEL   DDS   D(BV=60.1056   M=0.33  CJO=459p   VJ=1.05)
Dbody   3   20   DBODY
.MODEL   DBODY   D(IS=1.4E-13   N=1   RS=70.8m   TT=60n)
Ra    4    2    18m 
Rs    3    5    2m
Ls    5    30   5n
M2    1    8   6   6   INTER
E2    8    6   4   1   2
.MODEL   INTER   NMOS(VTO=0  KP=10   LEVEL=1)
Cgdmax  7   4    1200p
Rcgd     7   4    10meg
Dgd      6   4    DGD
Rdgd     4   6    10meg
.MODEL    DGD   D(M=0.53   CJO=1600p   VJ=0.23)
M3     7   9   1   1   INTER
E3     9   1   4   1   -2
.ENDS NDB506B
***********************************************************************
* NDB506BEL ELECTRICAL MODEL (TO-263 N-Ch DMOS)
* --------------------------
.SUBCKT  NDB506BEL  20  10  30
Rg  10  1  3
M1   2  1  3   3   DMOS    L=1u   W=1u
.MODEL  DMOS  NMOS(VTO=1.627776  KP=14.45
+ THETA=0.086  VMAX=2.1E5  LEVEL=3)
Cgs   1    3    734p
Rd    20   4    6m 
Dds   3    4    DDS
.MODEL   DDS   D(BV=60.1056  M=0.35  CJO=537p   VJ=1.16)
Dbody   3   20   DBODY
.MODEL   DBODY   D(IS=1.4E-13   N=1   RS=70.8m   TT=70n)
Ra    4    2    22m 
Rs    3    5    2m
Ls    5    30   5n
M2    1    8    6   6   INTER
E2    8    6    4   1   2
.MODEL   INTER   NMOS(VTO=0  KP=10   LEVEL=1)
Cgdmax   7   4    2500p
Rcgd     7   4    10meg
Dgd      6   4    DGD
Rdgd     4   6    10meg
.MODEL    DGD   D(M=0.54   CJO=1600p   VJ=0.104)
M3     7   9   1   1   INTER
E3     9   1   4   1   -2
.ENDS NDB506BEL
***********************************************************************
* NDB506BL ELECTRICAL MODEL  (TO-263 N-Ch DMOS)
* -------------------------
.SUBCKT  NDB506BL  20  10  30
Rg  10  1  3
M1   2  1  3   3   DMOS    L=1u   W=1u
.MODEL  DMOS  NMOS(VTO=1.58976  KP=14.45
+ THETA=0.086  VMAX=2.1E5  LEVEL=3)
Cgs   1    3    734p
Rd    20   4    6m 
Dds   3    4    DDS
.MODEL   DDS   D(BV=60.1056   M=0.35  CJO=537p   VJ=1.16)
Dbody   3   20   DBODY
.MODEL   DBODY   D(IS=1.4E-13   N=1   RS=70.8m   TT=70n)
Ra    4    2    22m 
Rs    3    5    2m
Ls    5    30   5n
M2    1    8    6   6   INTER
E2    8    6    4   1   2
.MODEL   INTER   NMOS(VTO=0  KP=10   LEVEL=1)
Cgdmax   7   4    2500p
Rcgd     7   4    10meg
Dgd      6   4    DGD
Rdgd     4   6    10meg
.MODEL    DGD   D(M=0.54   CJO=1600p   VJ=0.104)
M3     7   9   1   1   INTER
E3     9   1   4   1   -2
.ENDS NDB506BL
**************************************************************************
* NDB508A ELECTRICAL MODEL (TO-263 N-Ch DMOS)
* ------------------------
.SUBCKT  NDB508A 20 10 30
Rg  10  1  1
M1   2  1  3   3   DMOS    L=1u   W=1u
.MODEL  DMOS  NMOS(VTO=3.28416  KP=10.466
+  THETA=0.056  VMAX=2E5  LEVEL=3)
Cgs   1  3   650p
Rd   20  4   18m 
Dds   3  4   DDS
.MODEL   DDS   D(BV=80.1536   M=0.39  CJO=489p  VJ=0.8)
Dbody   3   20   DBODY
.MODEL   DBODY   D(IS=1.4E-13   N=1   RS=34.7m   TT=52n)
Ra    4    2    19m O08
Rs    3    5    2m
Ls    5    30   5n
M2    1    8   6   6   INTER
E2    8    6   4   1   2
.MODEL   INTER   NMOS(VTO=0  KP=10   LEVEL=1)
Cgdmax   7   4    1100p
Rcgd     7   4    10meg
Dgd      6   4    DGD
Rdgd     4   6    10meg
.MODEL    DGD   D(M=0.58   CJO=2500p  VJ=0.1046)
M3     7   9   1   1   INTER
E3     9   1   4   1   -2
.ENDS NDB508A
***********************************************************************
* NDB508AE ELECTRICAL MODEL (TO-263 N-Ch DMOS)
* -------------------------
.SUBCKT  NDB508AE 20 10 30
Rg  10  1  1
M1   2  1  3   3   DMOS    L=1u   W=1u
.MODEL  DMOS  NMOS(VTO=3.28416  KP=10.466
+ THETA=0.056  VMAX=2E5  LEVEL=3)
Cgs   1  3   650p
Rd   20  4   18m 
Dds   3  4   DDS
.MODEL   DDS   D(BV=80.1536   M=0.39  CJO=489p  VJ=0.8)
Dbody   3   20   DBODY
.MODEL   DBODY   D(IS=1.4E-13   N=1   RS=34.7m   TT=52n)
Ra    4    2    19m 
Rs    3    5    2m
Ls    5    30   5n
M2    1    8   6   6   INTER
E2    8    6   4   1   2
.MODEL   INTER   NMOS(VTO=0  KP=10   LEVEL=1)
Cgdmax   7   4    1100p
Rcgd     7   4    10meg
Dgd      6   4    DGD
Rdgd     4   6    10meg
.MODEL    DGD   D(M=0.58   CJO=2500p  VJ=0.1046)
M3     7   9   1   1   INTER
E3     9   1   4   1   -2
.ENDS NDB508AE
************************************************************************
* NDB508B ELECTRICAL MODEL (TO-263 N-Ch DMOS)
* ------------------------
.SUBCKT  NDB508B 20 10 30
Rg  10  1  1
M1   2  1  3   3   DMOS    L=1u   W=1u
.MODEL  DMOS  NMOS(VTO=3.28416 KP=10.466
+  THETA=0.056  VMAX=2E5  LEVEL=3)
Cgs   1  3   650p
Rd   20  4   23m 
Dds   3  4   DDS
.MODEL   DDS   D(BV=80.1536   M=0.39  CJO=489p  VJ=0.8)
Dbody   3   20   DBODY
.MODEL   DBODY   D(IS=1.4E-13   N=1   RS=34.7m   TT=52n)
Ra    4    2    24m 
Rs    3    5    2m
Ls    5    30   5n
M2    1    8   6   6   INTER
E2    8    6   4   1   2
.MODEL   INTER   NMOS(VTO=0  KP=10   LEVEL=1)
Cgdmax   7   4    1100p
Rcgd     7   4    10meg
Dgd      6   4    DGD
Rdgd     4   6    10meg
.MODEL    DGD   D(M=0.58   CJO=2500p  VJ=0.1046)
M3     7   9   1   1   INTER
E3     9   1   4   1   -2
.ENDS NDB508B
**********************************************************************
* NDB508BE ELECTRICAL MODEL (TO-263 N-Ch DMOS)
* -------------------------
.SUBCKT  NDB508BE 20 10 30
Rg  10  1  1
M1   2  1  3   3   DMOS    L=1u   W=1u
.MODEL  DMOS  NMOS(VTO=3.28416  KP=10.466
+ THETA=0.056  VMAX=2E5  LEVEL=3)
Cgs   1  3   650p
Rd   20  4   23m 
Dds   3  4   DDS
.MODEL   DDS   D(BV=80.1536   M=0.39  CJO=489p  VJ=0.8)
Dbody   3   20   DBODY
.MODEL   DBODY   D(IS=1.4E-13   N=1   RS=34.7m   TT=52n)
Ra    4    2    24m 
Rs    3    5    2m
Ls    5    30   5n
M2    1    8   6   6   INTER
E2    8    6   4   1   2
.MODEL   INTER   NMOS(VTO=0  KP=10   LEVEL=1)
Cgdmax   7   4    1100p
Rcgd     7   4    10meg
Dgd      6   4    DGD
Rdgd     4   6    10meg
.MODEL    DGD   D(M=0.58   CJO=2500p  VJ=0.1046)
M3     7   9   1   1   INTER
E3     9   1   4   1   -2
.ENDS NDB508BE
**********************************************************************
*NDB603AL ELECTRICAL MODEL
* ----------------------
.SUBCKT  NDB603AL 20  10  30
Rg     10    1    3
M1      2    1    3    3    DMOS    L=1u   W=1u
.MODEL DMOS NMOS (VTO=1.787904  KP=17.94
+ THETA=0.086  VMAX=1.4E5  LEVEL=3)
Cgs     1    3    800p
Rd     20    4    2m 
Dds     3    4    DDS
.MODEL     DDS    D(BV=30.0408   M=0.377  CJO=1083p   VJ=1.22)
Dbody   3   20    DBODY
.MODEL   DBODY    D(IS=1.4E-13   N=1   RS=37.9m   TT=55n)
Ra      4    2    7m 
Rs      3    5    1m
Ls      5    30   5n
M2      1    8    6    6   INTER
E2      8    6    4    1   2
.MODEL   INTER    NMOS(VTO=0  KP=10   LEVEL=1)
Cgdmax  7    4    1700p
Rcgd    7    4    10meg
Dgd     6    4    DGD
Rdgd    4    6    10meg
.MODEL     DGD    D(M=0.5   CJO=1700p   VJ=0.193)
M3      7    9    1    1   INTER
E3      9    1    4    1   -2
.ENDS NDB603AL
************************************************************************
* NDB605A ELECTRICAL MODEL (TO-263 N-Ch DMOS)
* ------------------------
.SUBCKT  NDB605A  20  10  30
Rg     10    1    3
M1      2    1    3    3    DMOS    L=1u   W=1u
.MODEL DMOS NMOS (VTO=3.473848  KP=19.44
+ THETA=0.056  VMAX=1.4E5  LEVEL=3)
Cgs     1    3    1154p
Rd     20    4    2.65m 
Dds     3    4    DDS
.MODEL     DDS    D(BV=50.088   M=0.377  CJO=1083p   VJ=1.22)
Dbody   3   20    DBODY