
.MODEL 1N4739 D (
+   IS =  3.13e-14
+   RS =  4.07
+   CJO =  1.64e-09
+   VJ =  0.75
+   TT =  6.21e-07
+   M =  0.333
+   BV =  9.1
+   IBV =  0.028
+   N =  1
+   EG =  1.11
+   XTI =  3
+   KF =  0
+   AF =  1
+   FC =  0.5
+   TNOM =  27
)

.MODEL 1N4734 D (
+   IS =  4.1e-14
+   RS =  4.42
+   CJO =  2.03e-09
+   VJ =  0.75
+   TT =  4.87e-07
+   M =  0.333
+   BV =  5.6
+   IBV =  0.045
+   N =  1
+   EG =  1.11
+   XTI =  3
+   KF =  0
+   AF =  1
+   FC =  0.5
+   TNOM =  27
)

.MODEL 1N4740 D (
+   IS =  1.34e-13
+   RS =  5.96
+   CJO =  1.57e-09
+   VJ =  0.75
+   TT =  6.51e-07
+   M =  0.333
+   BV =  10
+   IBV =  0.025
+   N =  1
+   EG =  1.11
+   XTI =  3
+   KF =  0
+   AF =  1
+   FC =  0.5
+   TNOM =  27
)
