***********************************************
*ELECTRONICS WORKBENCH MODEL FILE             * 
*MODELS GENERATED BY: S.IRELAND/S.MOORE       *
*(c) 1996 INTERACTIVE IMAGE TECHNOLOGIES LTD. * 
*TORONTO, ONTARIO (416)977-5550.              *
***********************************************
.MODEL BZV37 D (
+   IS =  1e-14
+   RS =  0.0011
+   CJO =  1.5e-10
+   VJ =  0.75
+   TT =  5e-09
+   M =  0.3333
+   BV =  6.5
+   IBV =  0.005
+   N =  1.11
+   EG = 1.11
+   XTI =  3
+   KF = 0
+   AF = 1
+   FC =  0.0001
+   TNOM =  27
)

.MODEL BZV49-C10 D (
+   IS =  1.089e-09
+   RS =  0.01
+   CJO =  7e-11
+   VJ =  0.75
+   TT =  5e-09
+   M =  0.3333
+   BV =  10
+   IBV =  0.005
+   N =  1.11
+   EG = 1.11
+   XTI =  3
+   KF = 0
+   AF = 1
+   FC =  0.6466
+   TNOM =  27
)

.MODEL BZV49-C11 D (
+   IS =  1.089e-09
+   RS =  0.01
+   CJO =  6.5e-11
+   VJ =  0.75
+   TT =  5e-09
+   M =  0.33333
+   BV =  11
+   IBV =  0.005
+   N =  1.11
+   EG = 1.11
+   XTI =  3
+   KF = 0
+   AF = 1
+   FC =  0.5173
+   TNOM =  27
)

.MODEL BZV49-C12 D (
+   IS =  1.089e-09
+   RS =  0.01
+   CJO =  6.5e-11
+   VJ =  0.75
+   TT =  5e-09
+   M =  0.3333
+   BV =  12
+   IBV =  0.005
+   N =  1.11
+   EG = 1.11
+   XTI =  3
+   KF = 0
+   AF = 1
+   FC =  0.5173
+   TNOM =  27
)

.MODEL BZV49-C13 D (
+   IS =  1.089e-09
+   RS =  0.01
+   CJO =  6e-11
+   VJ =  0.75
+   TT =  5e-09
+   M =  0.3333
+   BV =  13
+   IBV =  0.005
+   N =  1.11
+   EG = 1.11
+   XTI =  3
+   KF = 0
+   AF = 1
+   FC =  0.5173
+   TNOM =  27
)

.MODEL BZV49-C15 D (
+   IS =  1.089e-09
+   RS =  0.01
+   CJO =  5.5e-11
+   VJ =  0.75
+   TT =  5e-09
+   M =  0.3333
+   BV =  15
+   IBV =  0.005
+   N =  1.11
+   EG = 1.11
+   XTI =  3
+   KF = 0
+   AF = 1
+   FC =  0.5173
+   TNOM =  27
)

.MODEL BZV49-C16 D (
+   IS =  1.089e-09
+   RS =  0.01
+   CJO =  5.2e-11
+   VJ =  0.75
+   TT =  5e-09
+   M =  0.3333
+   BV =  16
+   IBV =  0.005
+   N =  1.11
+   EG = 1.11
+   XTI =  3
+   KF = 0
+   AF = 1
+   FC =  0.5173
+   TNOM =  27
)

.MODEL BZV49-C18 D (
+   IS =  1.089e-09
+   RS =  0.01
+   CJO =  4.7e-11
+   VJ =  0.75
+   TT =  5e-09
+   M =  0.3333
+   BV =  18
+   IBV =  0.005
+   N =  1.11
+   EG = 1.11
+   XTI =  3
+   KF = 0
+   AF = 1
+   FC =  0.5173
+   TNOM =  27
)

.MODEL BZV49-C20 D (
+   IS =  1.089e-09
+   RS =  0.01
+   CJO =  3.6e-11
+   VJ =  0.75
+   TT =  5e-09
+   M =  0.3333
+   BV =  20
+   IBV =  0.005
+   N =  1.11
+   EG = 1.11
+   XTI =  3
+   KF = 0
+   AF = 1
+   FC =  0.3449
+   TNOM =  27
)

.MODEL BZV49-C22 D (
+   IS =  1.089e-09
+   RS =  0.01
+   CJO =  3.4e-11
+   VJ =  0.75
+   TT =  5e-09
+   M =  0.3333
+   BV =  22
+   IBV =  0.005
+   N =  1.11
+   EG = 1.11
+   XTI =  3
+   KF = 0
+   AF = 1
+   FC =  0.2586
+   TNOM =  27
)

.MODEL BZV49-C24 D (
+   IS =  1.089e-09
+   RS =  0.01
+   CJO =  3.3e-11
+   VJ =  0.75
+   TT =  5e-09
+   M =  0.3333
+   BV =  24
+   IBV =  0.005
+   N =  1.11
+   EG = 1.11
+   XTI =  3
+   KF = 0
+   AF = 1
+   FC =  0.2069
+   TNOM =  27
)

.MODEL BZV49-C27 D (
+   IS =  1.089e-09
+   RS =  0.01
+   CJO =  3e-11
+   VJ =  0.75
+   TT =  5e-09
+   M =  0.3333
+   BV =  27
+   IBV =  0.002
+   N =  1.11
+   EG = 1.11
+   XTI =  3
+   KF = 0
+   AF = 1
+   FC =  0.5173
+   TNOM =  27
)

.MODEL BZV49-C2V4 D (
+   IS =  1.089e-09
+   RS =  0.01
+   CJO =  3.75e-10
+   VJ =  0.75
+   TT =  5e-09
+   M =  0.3333
+   BV =  2.4
+   IBV =  0.005
+   N =  1.11
+   EG = 1.11
+   XTI =  3
+   KF = 0
+   AF = 1
+   FC =  0.0739
+   TNOM =  27
)

.MODEL BZV49-C2V7 D (
+   IS =  1.089e-09
+   RS =  0.01
+   CJO =  3.5e-10
+   VJ =  0.75
+   TT =  5e-09
+   M =  0.3333
+   BV =  2.7
+   IBV =  0.005
+   N =  1.11
+   EG = 1.11
+   XTI =  3
+   KF = 0
+   AF = 1
+   FC =  0.06897
+   TNOM =  27
)

.MODEL BZV49-C30 D (
+   IS =  1.089e-09
+   RS =  0.01
+   CJO =  2.7e-11
+   VJ =  0.75
+   TT =  5e-09
+   M =  0.3333
+   BV =  30
+   IBV =  0.002
+   N =  1.11
+   EG = 1.11
+   XTI =  3
+   KF = 0
+   AF = 1
+   FC =  0.4311
+   TNOM =  27
)

.MODEL BZV49-C33 D (
+   IS =  1.089e-09
+   RS =  0.01
+   CJO =  2.5e-11
+   VJ =  0.75
+   TT =  5e-09
+   M =  0.3333
+   BV =  33
+   IBV =  0.002
+   N =  1.11
+   EG = 1.11
+   XTI =  3
+   KF = 0
+   AF = 1
+   FC =  0.3695
+   TNOM =  27
)

.MODEL BZV49-C36 D (
+   IS =  1.089e-09
+   RS =  0.01
+   CJO =  2.3e-11
+   VJ =  0.75
+   TT =  5e-09
+   M =  0.3333
+   BV =  36
+   IBV =  0.002
+   N =  1.11
+   EG = 1.11
+   XTI =  3
+   KF = 0
+   AF = 1
+   FC =  0.3695
+   TNOM =  27
)

.MODEL BZV49-C39 D (
+   IS =  1.089e-09
+   RS =  0.01
+   CJO =  2.1e-11
+   VJ =  0.75
+   TT =  5e-09
+   M =  0.3333
+   BV =  39
+   IBV =  0.002
+   N =  1.11
+   EG = 1.11
+   XTI =  3
+   KF = 0
+   AF = 1
+   FC =  0.3233
+   TNOM =  27
)

.MODEL BZV49-C3V0 D (
+   IS =  1.089e-09
+   RS =  0.01
+   CJO =  3.5e-10
+   VJ =  0.75
+   TT =  5e-09
+   M =  0.3333
+   BV =  3.0
+   IBV =  0.005
+   N =  1.11
+   EG = 1.11
+   XTI =  3
+   KF = 0
+   AF = 1
+   FC =  0.06466
+   TNOM =  27
)

.MODEL BZV49-C3V3 D (
+   IS =  1.089e-09
+   RS =  0.01
+   CJO =  3.25e-10
+   VJ =  0.75
+   TT =  5e-09
+   M =  0.3333
+   BV =  3.3
+   IBV =  0.005
+   N =  1.11
+   EG = 1.11
+   XTI =  3
+   KF = 0
+   AF = 1
+   FC =  0.06086
+   TNOM =  27
)

.MODEL BZV49-C3V6 D (
+   IS =  1.089e-09
+   RS =  0.01
+   CJO =  3e-10
+   VJ =  0.75
+   TT =  5e-09
+   M =  0.3333
+   BV =  3.6
+   IBV =  0.005
+   N =  1.11
+   EG = 1.11
+   XTI =  3
+   KF = 0
+   AF = 1
+   FC =  0.06086
+   TNOM =  27
)

.MODEL BZV49-C3V9 D (
+   IS =  1.089e-09
+   RS =  0.01
+   CJO =  3e-10
+   VJ =  0.75
+   TT =  5e-09
+   M =  0.3333
+   BV =  3.9
+   IBV =  0.005
+   N =  1.11
+   EG = 1.11
+   XTI =  3
+   KF = 0
+   AF = 1
+   FC =  0.06086
+   TNOM =  27
)

.MODEL BZV49-C43 D (
+   IS =  1.089e-09
+   RS =  0.01
+   CJO =  2.1e-11
+   VJ =  0.75
+   TT =  5e-09
+   M =  0.3333
+   BV =  43
+   IBV =  0.002
+   N =  1.11
+   EG = 1.11
+   XTI =  3
+   KF = 0
+   AF = 1
+   FC =  0.2874
+   TNOM =  27
)

.MODEL BZV49-C47 D (
+   IS =  1.089e-09
+   RS =  0.01
+   CJO =  1.9e-11
+   VJ =  0.75
+   TT =  5e-09
+   M =  0.3333
+   BV =  47
+   IBV =  0.002
+   N =  1.11
+   EG = 1.11
+   XTI =  3
+   KF = 0
+   AF = 1
+   FC =  0.2586
+   TNOM =  27
)

.MODEL BZV49-C4V3 D (
+   IS =  1.089e-09
+   RS =  0.01
+   CJO =  2.75e-10
+   VJ =  0.75
+   TT =  5e-09
+   M =  0.3333
+   BV =  4.3
+   IBV =  0.005
+   N =  1.11
+   EG = 1.11
+   XTI =  3
+   KF = 0
+   AF = 1
+   FC =  0.06466
+   TNOM =  27
)

.MODEL BZV49-C4V7 D (
+   IS =  1.089e-09
+   RS =  0.01
+   CJO =  2.45e-10
+   VJ =  0.75
+   TT =  5e-09
+   M =  0.3333
+   BV =  4.7
+   IBV =  0.005
+   N =  1.11
+   EG = 1.11
+   XTI =  3
+   KF = 0
+   AF = 1
+   FC =  0.1035
+   TNOM =  27
)

.MODEL BZV49-C51 D (
+   IS =  1.089e-09
+   RS =  0.01
+   CJO =  1.9e-11
+   VJ =  0.75
+   TT =  5e-09
+   M =  0.3333
+   BV =  51
+   IBV =  0.002
+   N =  1.11
+   EG = 1.11
+   XTI =  3
+   KF = 0
+   AF = 1
+   FC =  0.2155
+   TNOM =  27
)

.MODEL BZV49-C56 D (
+   IS =  1.089e-09
+   RS =  0.01
+   CJO =  1.8e-11
+   VJ =  0.75
+   TT =  5e-09
+   M =  0.3333
+   BV =  56
+   IBV =  0.002
+   N =  1.11
+   EG = 1.11
+   XTI =  3
+   KF = 0
+   AF = 1
+   FC =  0.1847
+   TNOM =  27
)

.MODEL BZV49-C5V1 D (
+   IS =  1.089e-09
+   RS =  0.01
+   CJO =  2.35e-10
+   VJ =  0.75
+   TT =  5e-09
+   M =  0.3333
+   BV =  5.1
+   IBV =  0.005
+   N =  1.11
+   EG = 1.11
+   XTI =  3
+   KF = 0
+   AF = 1
+   FC =  0.1293
+   TNOM =  27
)

.MODEL BZV49-C5V6 D (
+   IS =  1.089e-09
+   RS =  0.01
+   CJO =  2.25e-10
+   VJ =  0.75
+   TT =  5e-09
+   M =  0.3333
+   BV =  5.6
+   IBV =  0.005
+   N =  1.11
+   EG = 1.11
+   XTI =  3
+   KF = 0
+   AF = 1
+   FC =  0.3449
+   TNOM =  27
)

.MODEL BZV49-C62 D (
+   IS =  1.089e-09
+   RS =  0.01
+   CJO =  1.7e-11
+   VJ =  0.75
+   TT =  5e-09
+   M =  0.3333
+   BV =  62
+   IBV =  0.002
+   N =  1.11
+   EG = 1.11
+   XTI =  3
+   KF = 0
+   AF = 1
+   FC =  0.1617
+   TNOM =  27
)

.MODEL BZV49-C68 D (
+   IS =  1.089e-09
+   RS =  0.01
+   CJO =  1.7e-11
+   VJ =  0.75
+   TT =  5e-09
+   M =  0.3333
+   BV =  68
+   IBV =  0.002
+   N =  1.11
+   EG = 1.11
+   XTI =  3
+   KF = 0
+   AF = 1
+   FC =  0.1437
+   TNOM =  27
)

.MODEL BZV49-C6V2 D (
+   IS =  1.089e-09
+   RS =  0.01
+   CJO =  1.25e-10
+   VJ =  0.75
+   TT =  5e-09
+   M =  0.3333
+   BV =  6.2
+   IBV =  0.005
+   N =  1.11
+   EG = 1.11
+   XTI =  3
+   KF = 0
+   AF = 1
+   FC =  0.8621
+   TNOM =  27
)

.MODEL BZV49-C6V8 D (
+   IS =  1.089e-09
+   RS =  0.01
+   CJO =  1.05e-10
+   VJ =  0.75
+   TT =  5e-09
+   M =  0.3333
+   BV =  6.8
+   IBV =  0.005
+   N =  1.11
+   EG = 1.11
+   XTI =  3
+   KF = 0
+   AF = 1
+   FC =  0.8621
+   TNOM =  27
)

.MODEL BZV49-C75 D (
+   IS =  1.089e-09
+   RS =  0.01
+   CJO =  1.65e-11
+   VJ =  0.75
+   TT =  5e-09
+   M =  0.3333
+   BV =  75
+   IBV =  0.002
+   N =  1.11
+   EG = 1.11
+   XTI =  3
+   KF = 0
+   AF = 1
+   FC =  0.1361
+   TNOM =  27
)

.MODEL BZV49-C7V5 D (
+   IS =  1.089e-09
+   RS =  0.01
+   CJO =  9.5e-11
+   VJ =  0.75
+   TT =  5e-09
+   M =  0.3333
+   BV =  7.5
+   IBV =  0.005
+   N =  1.11
+   EG = 1.11
+   XTI =  3
+   KF = 0
+   AF = 1
+   FC =  0.8621
+   TNOM =  27
)

.MODEL BZV49-C8V2 D (
+   IS =  1.089e-09
+   RS =  0.01
+   CJO =  9e-11
+   VJ =  0.75
+   TT =  5e-09
+   M =  0.3333
+   BV =  8.2
+   IBV =  0.005
+   N =  1.11
+   EG = 1.11
+   XTI =  3
+   KF = 0
+   AF = 1
+   FC =  0.8621
+   TNOM =  27
)

.MODEL BZV49-C9V1 D (
+   IS =  1.089e-09
+   RS =  0.01
+   CJO =  9e-11
+   VJ =  0.75
+   TT =  5e-09
+   M =  0.3333
+   BV =  9.1
+   IBV =  0.005
+   N =  1.11
+   EG = 1.11
+   XTI =  3
+   KF = 0
+   AF = 1
+   FC =  0.8621
+   TNOM =  27
)

.MODEL BZV55-B10 D (
+   IS =  1.089e-09
+   RS =  0.01
+   CJO =  3.25e-10
+   VJ =  0.75
+   TT =  5e-09
+   M =  0.3333
+   BV =  10
+   IBV =  0.005
+   N =  1.11
+   EG = 1.11
+   XTI =  3
+   KF = 0
+   AF = 1
+   FC =  0.6466
+   TNOM =  27
)

.MODEL BZV55-B11 D (
+   IS =  1.089e-09
+   RS =  0.01
+   CJO =  3.25e-10
+   VJ =  0.75
+   TT =  5e-09
+   M =  0.3333
+   BV =  11
+   IBV =  0.005
+   N =  1.11
+   EG = 1.11
+   XTI =  3
+   KF = 0
+   AF = 1
+   FC =  0.5173
+   TNOM =  27
)

.MODEL BZV55-B12 D (
+   IS =  1.089e-09
+   RS =  0.01
+   CJO =  3.25e-10
+   VJ =  0.75
+   TT =  5e-09
+   M =  0.3333
+   BV =  12.
+   IBV =  0.005
+   N =  1.11
+   EG = 1.11
+   XTI =  3
+   KF = 0
+   AF = 1
+   FC =  0.5173
+   TNOM =  27
)

.MODEL BZV55-B13 D (
+   IS =  1.089e-09
+   RS =  0.01
+   CJO =  3.25e-10
+   VJ =  0.75
+   TT =  5e-09
+   M =  0.3333
+   BV =  13
+   IBV =  0.005
+   N =  1.11
+   EG = 1.11
+   XTI =  3
+   KF = 0
+   AF = 1
+   FC =  0.5173
+   TNOM =  27
)

.MODEL BZV55-B15 D (
+   IS =  1.089e-09
+   RS =  0.01
+   CJO =  3.25e-10
+   VJ =  0.75
+   TT =  5e-09
+   M =  0.3333
+   BV =  15
+   IBV =  0.005
+   N =  1.11
+   EG = 1.11
+   XTI =  3
+   KF = 0
+   AF = 1
+   FC =  0.5173
+   TNOM =  27
)

.MODEL BZV55-B16 D (
+   IS =  1.089e-09
+   RS =  0.01
+   CJO =  3.25e-10
+   VJ =  0.75
+   TT =  5e-09
+   M =  0.3333
+   BV =  16
+   IBV =  0.005
+   N =  1.11
+   EG = 1.11
+   XTI =  3
+   KF = 0
+   AF = 1
+   FC =  0.5173
+   TNOM =  27
)

.MODEL BZV55-B18 D (
+   IS =  1.089e-09
+   RS =  0.01
+   CJO =  3.25e-10
+   VJ =  0.75
+   TT =  5e-09
+   M =  0.3333
+   BV =  18
+   IBV =  0.005
+   N =  1.11
+   EG = 1.11
+   XTI =  3
+   KF = 0
+   AF = 1
+   FC =  0.5173
+   TNOM =  27
)

.MODEL BZV55-B20 D (
+   IS =  1.089e-09
+   RS =  0.01
+   CJO =  3.25e-10
+   VJ =  0.75
+   TT =  5e-09
+   M =  0.3333
+   BV =  20
+   IBV =  0.005
+   N =  1.11
+   EG = 1.11
+   XTI =  3
+   KF = 0
+   AF = 1
+   FC =  0.3449
+   TNOM =  27
)

.MODEL BZV55-B22 D (
+   IS =  1.089e-09
+   RS =  0.01
+   CJO =  3.25e-10
+   VJ =  0.75
+   TT =  5e-09
+   M =  0.3333
+   BV =  22
+   IBV =  0.005
+   N =  1.11
+   EG = 1.11
+   XTI =  3
+   KF = 0
+   AF = 1
+   FC =  0.2586
+   TNOM =  27
)

.MODEL BZV55-B24 D (
+   IS =  1.089e-09
+   RS =  0.01
+   CJO =  3.25e-10
+   VJ =  0.75
+   TT =  5e-09
+   M =  0.3333
+   BV =  24
+   IBV =  0.005
+   N =  1.11
+   EG = 1.11
+   XTI =  3
+   KF = 0
+   AF = 1
+   FC =  0.2069
+   TNOM =  27
)

.MODEL BZV55-B27 D (
+   IS =  1.089e-09
+   RS =  0.01
+   CJO =  3.25e-10
+   VJ =  0.75
+   TT =  5e-09
+   M =  0.3333
+   BV =  27
+   IBV =  0.002
+   N =  1.11
+   EG = 1.11
+   XTI =  3
+   KF = 0
+   AF = 1
+   FC =  0.5173
+   TNOM =  27
)

.MODEL BZV55-B2V4 D (
+   IS =  1.089e-09
+   RS =  0.01
+   CJO =  2.75e-10
+   VJ =  0.75
+   TT =  5e-09
+   M =  0.3333
+   BV =  2.4
+   IBV =  0.005
+   N =  1.11
+   EG = 1.11
+   XTI =  3
+   KF = 0
+   AF = 1
+   FC =  0.0739
+   TNOM =  27
)

.MODEL BZV55-B2V7 D (
+   IS =  1.089e-09
+   RS =  0.01
+   CJO =  3e-10
+   VJ =  0.75
+   TT =  5e-09
+   M =  0.3333
+   BV =  2.7
+   IBV =  0.005
+   N =  1.11
+   EG = 1.11
+   XTI =  3
+   KF = 0
+   AF = 1
+   FC =  0.06897
+   TNOM =  27
)

.MODEL BZV55-B30 D (
+   IS =  1.089e-09
+   RS =  0.01
+   CJO =  3.25e-10
+   VJ =  0.75
+   TT =  5e-09
+   M =  0.3333
+   BV =  30.0
+   IBV =  0.002
+   N =  1.11
+   EG = 1.11
+   XTI =  3
+   KF = 0
+   AF = 1
+   FC =  0.4311
+   TNOM =  27
)

.MODEL BZV55-B33 D (
+   IS =  1.089e-09
+   RS =  0.01
+   CJO =  3.25e-10
+   VJ =  0.75
+   TT =  5e-09
+   M =  0.3333
+   BV =  33
+   IBV =  0.002
+   N =  1.11
+   EG = 1.11
+   XTI =  3
+   KF = 0
+   AF = 1
+   FC =  0.3695
+   TNOM =  27
)

.MODEL BZV55-B36 D (
+   IS =  1.089e-09
+   RS =  0.01
+   CJO =  3.25e-10
+   VJ =  0.75
+   TT =  5e-09
+   M =  0.3333
+   BV =  36
+   IBV =  0.002
+   N =  1.11
+   EG = 1.11
+   XTI =  3
+   KF = 0
+   AF = 1
+   FC =  0.3695
+   TNOM =  27
)

.MODEL BZV55-B39 D (
+   IS =  1.089e-09
+   RS =  0.01
+   CJO =  3.25e-10
+   VJ =  0.75
+   TT =  5e-09
+   M =  0.3333
+   BV =  39
+   IBV =  0.002
+   N =  1.11
+   EG = 1.11
+   XTI =  3
+   KF = 0
+   AF = 1
+   FC =  0.3233
+   TNOM =  27
)

.MODEL BZV55-B3V0 D (
+   IS =  1.089e-09
+   RS =  0.01
+   CJO =  3.25e-10
+   VJ =  0.75
+   TT =  5e-09
+   M =  0.3333
+   BV =  3.00
+   IBV =  0.005
+   N =  1.11
+   EG = 1.11
+   XTI =  3
+   KF = 0
+   AF = 1
+   FC =  0.06466
+   TNOM =  27
)

.MODEL BZV55-B3V3 D (
+   IS =  1.089e-09
+   RS =  0.01
+   CJO =  3.25e-10
+   VJ =  0.75
+   TT =  5e-09
+   M =  0.3333
+   BV =  3.3
+   IBV =  0.005
+   N =  1.11
+   EG = 1.11
+   XTI =  3
+   KF = 0
+   AF = 1
+   FC =  0.06086
+   TNOM =  27
)

.MODEL BZV55-B3V6 D (
+   IS =  1.089e-09
+   RS =  0.01
+   CJO =  3.25e-10
+   VJ =  0.75
+   TT =  5e-09
+   M =  0.3333
+   BV =  3.6
+   IBV =  0.005
+   N =  1.11
+   EG = 1.11
+   XTI =  3
+   KF = 0
+   AF = 1
+   FC =  0.06086
+   TNOM =  27
)

.MODEL BZV55-B3V9 D (
+   IS =  1.089e-09
+   RS =  0.01
+   CJO =  3.25e-10
+   VJ =  0.75
+   TT =  5e-09
+   M =  0.3333
+   BV =  3.9
+   IBV =  0.005
+   N =  1.11
+   EG = 1.11
+   XTI =  3
+   KF = 0
+   AF = 1
+   FC =  0.06086
+   TNOM =  27
)

.MODEL BZV55-B43 D (
+   IS =  1.089e-09
+   RS =  0.01
+   CJO =  3.25e-10
+   VJ =  0.75
+   TT =  5e-09
+   M =  0.3333
+   BV =  43
+   IBV =  0.002
+   N =  1.11
+   EG = 1.11
+   XTI =  3
+   KF = 0
+   AF = 1
+   FC =  0.2874
+   TNOM =  27
)

.MODEL BZV55-B47 D (
+   IS =  1.089e-09
+   RS =  0.01
+   CJO =  3.25e-10
+   VJ =  0.75
+   TT =  5e-09
+   M =  0.3333
+   BV =  47
+   IBV =  0.002
+   N =  1.11
+   EG = 1.11
+   XTI =  3
+   KF = 0
+   AF = 1
+   FC =  0.2586
+   TNOM =  27
)

.MODEL BZV55-B4V3 D (
+   IS =  1.089e-09
+   RS =  0.01
+   CJO =  3.25e-10
+   VJ =  0.75
+   TT =  5e-09
+   M =  0.3333
+   BV =  4.3
+   IBV =  0.005
+   N =  1.11
+   EG = 1.11
+   XTI =  3
+   KF = 0
+   AF = 1
+   FC =  0.06466
+   TNOM =  27
)

.MODEL BZV55-B4V7 D (
+   IS =  1.089e-09
+   RS =  0.01
+   CJO =  3.25e-10
+   VJ =  0.75
+   TT =  5e-09
+   M =  0.3333
+   BV =  4.7
+   IBV =  0.005
+   N =  1.11
+   EG = 1.11
+   XTI =  3
+   KF = 0
+   AF = 1
+   FC =  0.1035
+   TNOM =  27
)

.MODEL BZV55-B51 D (
+   IS =  1.089e-09
+   RS =  0.01
+   CJO =  3.25e-10
+   VJ =  0.75
+   TT =  5e-09
+   M =  0.3333
+   BV =  51
+   IBV =  0.002
+   N =  1.11
+   EG = 1.11
+   XTI =  3
+   KF = 0
+   AF = 1
+   FC =  0.2155
+   TNOM =  27
)

.MODEL BZV55-B56 D (
+   IS =  1.089e-09
+   RS =  0.01
+   CJO =  3.25e-10
+   VJ =  0.75
+   TT =  5e-09
+   M =  0.3333
+   BV =  56
+   IBV =  0.002
+   N =  1.11
+   EG = 1.11
+   XTI =  3
+   KF = 0
+   AF = 1
+   FC =  0.1847
+   TNOM =  27
)

.MODEL BZV55-B5V1 D (
+   IS =  1.089e-09
+   RS =  0.01
+   CJO =  3.25e-10
+   VJ =  0.75
+   TT =  5e-09
+   M =  0.3333
+   BV =  5.1
+   IBV =  0.005
+   N =  1.11
+   EG = 1.11
+   XTI =  3
+   KF = 0
+   AF = 1
+   FC =  0.1293
+   TNOM =  27
)

.MODEL BZV55-B5V6 D (
+   IS =  1.089e-09
+   RS =  0.01
+   CJO =  3.25e-10
+   VJ =  0.75
+   TT =  5e-09
+   M =  0.3333
+   BV =  5.6
+   IBV =  0.005
+   N =  1.11
+   EG = 1.11
+   XTI =  3
+   KF = 0
+   AF = 1
+   FC =  0.3449
+   TNOM =  27
)

.MODEL BZV55-B68 D (
+   IS =  1.089e-09
+   RS =  0.01
+   CJO =  3.25e-10
+   VJ =  0.75
+   TT =  5e-09
+   M =  0.3333
+   BV =  68
+   IBV =  0.002
+   N =  1.11
+   EG = 1.11
+   XTI =  3
+   KF = 0
+   AF = 1
+   FC =  0.1437
+   TNOM =  27
)

.MODEL BZV55-B6V2 D (
+   IS =  1.089e-09
+   RS =  0.01
+   CJO =  3.25e-10
+   VJ =  0.75
+   TT =  5e-09
+   M =  0.3333
+   BV =  6.2
+   IBV =  0.005
+   N =  1.11
+   EG = 1.11
+   XTI =  3
+   KF = 0
+   AF = 1
+   FC =  0.8621
+   TNOM =  27
)

.MODEL BZV55-B6V8 D (
+   IS =  1.089e-09
+   RS =  0.01
+   CJO =  3.25e-10
+   VJ =  0.75
+   TT =  5e-09
+   M =  0.3333
+   BV =  6.8
+   IBV =  0.005
+   N =  1.11
+   EG = 1.11
+   XTI =  3
+   KF = 0
+   AF = 1
+   FC =  0.8621
+   TNOM =  27
)

.MODEL BZV55-B75 D (
+   IS =  1.089e-09
+   RS =  0.01
+   CJO =  3.25e-10
+   VJ =  0.75
+   TT =  5e-09
+   M =  0.3333
+   BV =  75
+   IBV =  0.002
+   N =  1.11
+   EG = 1.11
+   XTI =  3
+   KF = 0
+   AF = 1
+   FC =  0.1361
+   TNOM =  27
)

.MODEL BZV55-B7V5 D (
+   IS =  1.089e-09
+   RS =  0.01
+   CJO =  3.25e-10
+   VJ =  0.75
+   TT =  5e-09
+   M =  0.3333
+   BV =  7.5
+   IBV =  0.005
+   N =  1.11
+   EG = 1.11
+   XTI =  3
+   KF = 0
+   AF = 1
+   FC =  0.8621
+   TNOM =  27
)

.MODEL BZV55-B8V2 D (
+   IS =  1.089e-09
+   RS =  0.01
+   CJO =  3.25e-10
+   VJ =  0.75
+   TT =  5e-09
+   M =  0.3333
+   BV =  8.2
+   IBV =  0.005
+   N =  1.11
+   EG = 1.11
+   XTI =  3
+   KF = 0
+   AF = 1
+   FC =  0.8621
+   TNOM =  27
)

.MODEL BZV55-B9V1 D (
+   IS =  1.089e-09
+   RS =  0.01
+   CJO =  3.25e-10
+   VJ =  0.75
+   TT =  5e-09
+   M =  0.3333
+   BV =  9.1
+   IBV =  0.005
+   N =  1.11
+   EG = 1.11
+   XTI =  3
+   KF = 0
+   AF = 1
+   FC =  0.8621
+   TNOM =  27
)

.MODEL BZV55-C10 D (
+   IS =  1.089e-09
+   RS =  0.01
+   CJO =  3.25e-10
+   VJ =  0.75
+   TT =  5e-09
+   M =  0.3333
+   BV =  10
+   IBV =  0.005
+   N =  1.11
+   EG = 1.11
+   XTI =  3
+   KF = 0
+   AF = 1
+   FC =  0.6466
+   TNOM =  27
)

.MODEL BZV55-C11 D (
+   IS =  1.089e-09
+   RS =  0.01
+   CJO =  3.25e-10
+   VJ =  0.75
+   TT =  5e-09
+   M =  0.3333
+   BV =  11
+   IBV =  0.005
+   N =  1.11
+   EG = 1.11
+   XTI =  3
+   KF = 0
+   AF = 1
+   FC =  0.5173
+   TNOM =  27
)

.MODEL BZV55-C12 D (
+   IS =  1.089e-09
+   RS =  0.01
+   CJO =  3.25e-10
+   VJ =  0.75
+   TT =  5e-09
+   M =  0.3333
+   BV =  12
+   IBV =  0.005
+   N =  1.11
+   EG = 1.11
+   XTI =  3
+   KF = 0
+   AF = 1
+   FC =  0.5173
+   TNOM =  27
)

.MODEL BZV55-C13 D (
+   IS =  1.089e-09
+   RS =  0.01
+   CJO =  3.25e-10
+   VJ =  0.75
+   TT =  5e-09
+   M =  0.3333
+   BV =  13
+   IBV =  0.005
+   N =  1.11
+   EG = 1.11
+   XTI =  3
+   KF = 0
+   AF = 1
+   FC =  0.5173
+   TNOM =  27
)

.MODEL BZV55-C15 D (
+   IS =  1.089e-09
+   RS =  0.01
+   CJO =  3.25e-10
+   VJ =  0.75
+   TT =  5e-09
+   M =  0.3333
+   BV =  15
+   IBV =  0.005
+   N =  1.11
+   EG = 1.11
+   XTI =  3
+   KF = 0
+   AF = 1
+   FC =  0.5173
+   TNOM =  27
)

.MODEL BZV55-C16 D (
+   IS =  1.089e-09
+   RS =  0.01
+   CJO =  3.25e-10
+   VJ =  0.75
+   TT =  5e-09
+   M =  0.3333
+   BV =  16
+   IBV =  0.005
+   N =  1.11
+   EG = 1.11
+   XTI =  3
+   KF = 0
+   AF = 1
+   FC =  0.5173
+   TNOM =  27
)

.MODEL BZV55-C18 D (
+   IS =  1.089e-09
+   RS =  0.01
+   CJO =  3.25e-10
+   VJ =  0.75
+   TT =  5e-09
+   M =  0.3333
+   BV =  18
+   IBV =  0.005
+   N =  1.11
+   EG = 1.11
+   XTI =  3
+   KF = 0
+   AF = 1
+   FC =  0.5173
+   TNOM =  27
)

.MODEL BZV55-C2V4 D (
+   IS =  1.089e-09
+   RS =  0.01
+   CJO =  2.75e-10
+   VJ =  0.75
+   TT =  5e-09
+   M =  0.3333
+   BV =  2.4
+   IBV =  0.005
+   N =  1.11
+   EG = 1.11
+   XTI =  3
+   KF = 0
+   AF = 1
+   FC =  0.0739
+   TNOM =  27
)

.MODEL BZV55-C2V7 D (
+   IS =  1.089e-09
+   RS =  0.01
+   CJO =  3e-10
+   VJ =  0.75
+   TT =  5e-09
+   M =  0.3333
+   BV =  2.7
+   IBV =  0.005
+   N =  1.11
+   EG = 1.11
+   XTI =  3
+   KF = 0
+   AF = 1
+   FC =  0.06897
+   TNOM =  27
)

.MODEL BZV55-C3V0 D (
+   IS =  1.089e-09
+   RS =  0.01
+   CJO =  3.25e-10
+   VJ =  0.75
+   TT =  5e-09
+   M =  0.3333
+   BV =  3.000
+   IBV =  0.005
+   N =  1.11
+   EG = 1.11
+   XTI =  3
+   KF = 0
+   AF = 1
+   FC =  0.06466
+   TNOM =  27
)

.MODEL BZV55-C3V3 D (
+   IS =  1.089e-09
+   RS =  0.01
+   CJO =  3.25e-10
+   VJ =  0.75
+   TT =  5e-09
+   M =  0.3333
+   BV =  3.300
+   IBV =  0.005
+   N =  1.11
+   EG = 1.11
+   XTI =  3
+   KF = 0
+   AF = 1
+   FC =  0.06086
+   TNOM =  27
)

.MODEL BZV55-C3V6 D (
+   IS =  1.089e-09
+   RS =  0.01
+   CJO =  3.25e-10
+   VJ =  0.75
+   TT =  5e-09
+   M =  0.3333
+   BV =  3.600
+   IBV =  0.005
+   N =  1.11
+   EG = 1.11
+   XTI =  3
+   KF = 0
+   AF = 1
+   FC =  0.06086
+   TNOM =  27
)

.MODEL BZV55-C3V9 D (
+   IS =  1.089e-09
+   RS =  0.01
+   CJO =  3.25e-10
+   VJ =  0.75
+   TT =  5e-09
+   M =  0.3333
+   BV =  3.900
+   IBV =  0.005
+   N =  1.11
+   EG = 1.11
+   XTI =  3
+   KF = 0
+   AF = 1
+   FC =  0.06086
+   TNOM =  27
)

.MODEL BZV55-C4V3 D (
+   IS =  1.089e-09
+   RS =  0.01
+   CJO =  3.25e-10
+   VJ =  0.75
+   TT =  5e-09
+   M =  0.3333
+   BV =  4.300
+   IBV =  0.005
+   N =  1.11
+   EG = 1.11
+   XTI =  3
+   KF = 0
+   AF = 1
+   FC =  0.06466
+   TNOM =  27
)

.MODEL BZV55-C4V7 D (
+   IS =  1.089e-09
+   RS =  0.01
+   CJO =  3.25e-10
+   VJ =  0.75
+   TT =  5e-09
+   M =  0.3333
+   BV =  4.700
+   IBV =  0.005
+   N =  1.11
+   EG = 1.11
+   XTI =  3
+   KF = 0
+   AF = 1
+   FC =  0.1035
+   TNOM =  27
)

.MODEL BZV55-C5V1 D (
+   IS =  1.089e-09
+   RS =  0.01
+   CJO =  3.25e-10
+   VJ =  0.75
+   TT =  5e-09
+   M =  0.3333
+   BV =  5.100
+   IBV =  0.005
+   N =  1.11
+   EG = 1.11
+   XTI =  3
+   KF = 0
+   AF = 1
+   FC =  0.1293
+   TNOM =  27
)

.MODEL BZV55-C5V6 D (
+   IS =  1.089e-09
+   RS =  0.01
+   CJO =  3.25e-10
+   VJ =  0.75
+   TT =  5e-09
+   M =  0.3333
+   BV =  5.600
+   IBV =  0.005
+   N =  1.11
+   EG = 1.11
+   XTI =  3
+   KF = 0
+   AF = 1
+   FC =  0.3449
+   TNOM =  27
)

.MODEL BZV55-C6V2 D (
+   IS =  1.089e-09
+   RS =  0.01
+   CJO =  3.25e-10
+   VJ =  0.75
+   TT =  5e-09
+   M =  0.3333
+   BV =  6.200
+   IBV =  0.005
+   N =  1.11
+   EG = 1.11
+   XTI =  3
+   KF = 0
+   AF = 1
+   FC =  0.8621
+   TNOM =  27
)

.MODEL BZV55-C6V8 D (
+   IS =  1.089e-09
+   RS =  0.01
+   CJO =  3.25e-10
+   VJ =  0.75
+   TT =  5e-09
+   M =  0.3333
+   BV =  6.800
+   IBV =  0.005
+   N =  1.11
+   EG = 1.11
+   XTI =  3
+   KF = 0
+   AF = 1
+   FC =  0.8621
+   TNOM =  27
)

.MODEL BZV55-C7V5 D (
+   IS =  1.089e-09
+   RS =  0.01
+   CJO =  3.25e-10
+   VJ =  0.75
+   TT =  5e-09
+   M =  0.3333
+   BV =  7.500
+   IBV =  0.005
+   N =  1.11
+   EG = 1.11
+   XTI =  3
+   KF = 0
+   AF = 1
+   FC =  0.8621
+   TNOM =  27
)

.MODEL BZV55-C8V2 D (
+   IS =  1.089e-09
+   RS =  0.01
+   CJO =  3.25e-10
+   VJ =  0.75
+   TT =  5e-09
+   M =  0.3333
+   BV =  8.200
+   IBV =  0.005
+   N =  1.11
+   EG = 1.11
+   XTI =  3
+   KF = 0
+   AF = 1
+   FC =  0.8621
+   TNOM =  27
)

.MODEL BZV55-C9V1 D (
+   IS =  1.089e-09
+   RS =  0.01
+   CJO =  3.25e-10
+   VJ =  0.75
+   TT =  5e-09
+   M =  0.3333
+   BV =  9.100
+   IBV =  0.005
+   N =  1.11
+   EG = 1.11
+   XTI =  3
+   KF = 0
+   AF = 1
+   FC =  0.8621
+   TNOM =  27
)

.MODEL BZV55-F2V4 D (
+   IS =  1.089e-09
+   RS =  0.01
+   CJO =  1e-12
+   VJ =  0.75
+   TT =  5e-09
+   M =  0.3333
+   BV =  2.400
+   IBV =  0.005
+   N =  1.11
+   EG = 1.11
+   XTI =  3
+   KF = 0
+   AF = 1
+   FC =  0.07438
+   TNOM =  27
)

.MODEL BZV60-B10 D (
+   IS =  1.007e-14
+   RS =  0.585
+   CJO =  1e-12
+   VJ =  0.75
+   TT =  5e-09
+   M =  0.3333
+   BV =  10.00
+   IBV =  0.005
+   N =  1.11
+   EG = 1.11
+   XTI =  3
+   KF = 0
+   AF = 1
+   FC =  0.6856
+   TNOM =  27
)

.MODEL BZV60-B11 D (
+   IS =  1e-09
+   RS =  0.585
+   CJO =  1e-12
+   VJ =  0.75
+   TT =  5e-09
+   M =  0.3333
+   BV =  11.00
+   IBV =  0.005
+   N =  1.11
+   EG = 1.11
+   XTI =  3
+   KF = 0
+   AF = 1
+   FC =  0.542
+   TNOM =  27
)

.MODEL BZV60-B12 D (
+   IS =  1.014e-09
+   RS =  0.585
+   CJO =  1e-12
+   VJ =  0.75
+   TT =  5e-09
+   M =  0.3333
+   BV =  12
+   IBV =  0.005
+   N =  1.11
+   EG = 1.11
+   XTI =  3
+   KF = 0
+   AF = 1
+   FC =  0.542
+   TNOM =  27
)

.MODEL BZV60-B13 D (
+   IS =  1.015e-09
+   RS =  0.585
+   CJO =  1e-12
+   VJ =  0.75
+   TT =  5e-09
+   M =  0.3333
+   BV =  13.00
+   IBV =  0.005
+   N =  1.11
+   EG = 1.11
+   XTI =  3
+   KF = 0
+   AF = 1
+   FC =  0.542
+   TNOM =  27
)

.MODEL BZV60-B15 D (
+   IS =  4.007e-09
+   RS =  0.585
+   CJO =  1e-12
+   VJ =  0.75
+   TT =  5e-09
+   M =  0.3333
+   BV =  15.00
+   IBV =  0.005
+   N =  1.11
+   EG = 1.11
+   XTI =  3
+   KF = 0
+   AF = 1
+   FC =  0.542
+   TNOM =  27
)

.MODEL BZV60-B16 D (
+   IS =  1.001e-09
+   RS =  0.585
+   CJO =  1e-12
+   VJ =  0.75
+   TT =  5e-09
+   M =  0.3333
+   BV =  16.00
+   IBV =  0.005
+   N =  1.11
+   EG = 1.11
+   XTI =  3
+   KF = 0
+   AF = 1
+   FC =  0.542
+   TNOM =  27
)

.MODEL BZV60-B18 D (
+   IS =  1.014e-10
+   RS =  0.585
+   CJO =  1e-12
+   VJ =  0.75
+   TT =  5e-09
+   M =  0.3333
+   BV =  18.00
+   IBV =  0.005
+   N =  1.11
+   EG = 1.11
+   XTI =  3
+   KF = 0
+   AF = 1
+   FC =  0.542
+   TNOM =  27
)

.MODEL BZV60-B20 D (
+   IS =  1.015e-09
+   RS =  0.4552
+   CJO =  1e-12
+   VJ =  0.75
+   TT =  5e-09
+   M =  0.3333
+   BV =  20.00
+   IBV =  0.005
+   N =  1.11
+   EG = 1.11
+   XTI =  3
+   KF = 0
+   AF = 1
+   FC =  0.3556
+   TNOM =  27
)

.MODEL BZV60-B22 D (
+   IS =  1.007e-09
+   RS =  0.4552
+   CJO =  1e-12
+   VJ =  0.75
+   TT =  5e-09
+   M =  0.3333
+   BV =  22.00
+   IBV =  0.005
+   N =  1.11
+   EG = 1.11
+   XTI =  3
+   KF = 0
+   AF = 1
+   FC =  0.2647
+   TNOM =  27
)

.MODEL BZV60-B24 D (
+   IS =  1.001e-09
+   RS =  0.4552
+   CJO =  1e-12
+   VJ =  0.75
+   TT =  5e-09
+   M =  0.3333
+   BV =  24.00
+   IBV =  0.005
+   N =  1.11
+   EG = 1.11
+   XTI =  3
+   KF = 0
+   AF = 1
+   FC =  0.2108
+   TNOM =  27
)

.MODEL BZV60-B27 D (
+   IS =  1.014e-09
+   RS =  0.4552
+   CJO =  1e-12
+   VJ =  0.75
+   TT =  5e-09
+   M =  0.3333
+   BV =  27.00
+   IBV =  0.002
+   N =  1.11
+   EG = 1.11
+   XTI =  3
+   KF = 0
+   AF = 1
+   FC =  0.5269
+   TNOM =  27
)

.MODEL BZV60-B2V4 D (
+   IS =  1.073e-09
+   RS =  0.455
+   CJO =  1e-12
+   VJ =  0.75
+   TT =  5e-09
+   M =  0.3333
+   BV =  2.4  
+   IBV =  0.005
+   N =  1.11
+   EG = 1.11
+   XTI =  3
+   KF = 0
+   AF = 1
+   FC =  0.07438
+   TNOM =  27
)

.MODEL BZV60-B2V7 D (
+   IS =  1.001e-09
+   RS =  0.4552
+   CJO =  1e-12
+   VJ =  0.75
+   TT =  5e-09
+   M =  0.3333
+   BV =  2.700
+   IBV =  0.005
+   N =  1.11
+   EG = 1.11
+   XTI =  3
+   KF = 0
+   AF = 1
+   FC =  0.06939
+   TNOM =  27
)

.MODEL BZV60-B30 D (
+   IS =  1.015e-09
+   RS =  0.4552
+   CJO =  1e-12
+   VJ =  0.75
+   TT =  5e-09
+   M =  0.3333
+   BV =  30.00
+   IBV =  0.002
+   N =  1.11
+   EG = 1.11
+   XTI =  3
+   KF = 0
+   AF = 1
+   FC =  0.4377
+   TNOM =  27
)

.MODEL BZV60-B33 D (
+   IS =  1.007e-09
+   RS =  0.4552
+   CJO =  1e-12
+   VJ =  0.75
+   TT =  5e-09
+   M =  0.3333
+   BV =  33.00
+   IBV =  0.002
+   N =  1.11
+   EG = 1.11
+   XTI =  3
+   KF = 0
+   AF = 1
+   FC =  0.3744
+   TNOM =  27
)

.MODEL BZV60-B36 D (
+   IS =  1.001e-09
+   RS =  0.4552
+   CJO =  1e-12
+   VJ =  0.75
+   TT =  5e-09
+   M =  0.3333
+   BV =  36.00
+   IBV =  0.002
+   N =  1.11
+   EG = 1.11
+   XTI =  3
+   KF = 0
+   AF = 1
+   FC =  0.3744
+   TNOM =  27
)

.MODEL BZV60-B39 D (
+   IS =  1.014e-09
+   RS =  0.4552
+   CJO =  1e-12
+   VJ =  0.75
+   TT =  5e-09
+   M =  0.3333
+   BV =  39.00
+   IBV =  0.002
+   N =  1.11
+   EG = 1.11
+   XTI =  3
+   KF = 0
+   AF = 1
+   FC =  0.327
+   TNOM =  27
)

.MODEL BZV60-B3V0 D (
+   IS =  1.015e-09
+   RS =  0.4552
+   CJO =  1e-12
+   VJ =  0.75
+   TT =  5e-09
+   M =  0.3333
+   BV =  3.000
+   IBV =  0.005
+   N =  1.11
+   EG = 1.11
+   XTI =  3
+   KF = 0
+   AF = 1
+   FC =  0.06503
+   TNOM =  27
)

.MODEL BZV60-B3V3 D (
+   IS =  1.007e-09
+   RS =  0.4552
+   CJO =  1e-12
+   VJ =  0.75
+   TT =  5e-09
+   M =  0.3333
+   BV =  3.300
+   IBV =  0.005
+   N =  1.11
+   EG = 1.11
+   XTI =  3
+   KF = 0
+   AF = 1
+   FC =  0.06118
+   TNOM =  27
)

.MODEL BZV60-B3V6 D (
+   IS =  1.001e-09
+   RS =  0.4552
+   CJO =  1e-12
+   VJ =  0.75
+   TT =  5e-09
+   M =  0.3333
+   BV =  3.600
+   IBV =  0.005
+   N =  1.11
+   EG = 1.11
+   XTI =  3
+   KF = 0
+   AF = 1
+   FC =  0.06118
+   TNOM =  27
)

.MODEL BZV60-B3V9 D (
+   IS =  1.014e-09
+   RS =  0.4552
+   CJO =  1e-12
+   VJ =  0.75
+   TT =  5e-09
+   M =  0.3333
+   BV =  3.900
+   IBV =  0.005
+   N =  1.11
+   EG = 1.11
+   XTI =  3
+   KF = 0
+   AF = 1