*Copyright 1995 by Analog Devices
*
* AD22050T SPICE Macro-model            Rev. A, 9/95
*                                       ARG / ADSC
*
* Copyright 1995 by Analog Devices
*
* Refer to "README.DOC" file for License Statement. Use of
* this model indicates your acceptance of the terms and pro-
* visions in the License Statement.
*
* Node assignments
*                non-inverting input
*                |  inverting input
*                |  |  positive supply
*                |  |  |  negative supply
*                |  |  |  |  Output
*                |  |  |  |  |  A1 in  
*                |  |  |  |  |  |  A2 in
*                |  |  |  |  |  |  |  offset
*                |  |  |  |  |  |  |  |
.SUBCKT AD22050T 1  2  99 50 49 30 31 40
*
* A1 INPUT ATTENUATORS, GAIN, AND OFFSET RESISTORS
*
R1 1 3 200K
R2 2 4 200K
RS1 3 16 1K
RS2 4 18 1K
R3 3 5 41K
R4 4 6 41K
R5 5 6 2.566K TC=-134U
R6 5 50 250
R7 6 50 250
R8 5 19 9K
R9 6 7 10K
R10 19 40 2K
R11 19 50 2K
R12 7 30 100K
R16 7 50 10K
C1 16 50 5P
C2 17 50 5P
*
* A1 INPUT STAGE AND POLE AT 1MHZ
*
I1 99 8 7.55U
Q1 11 16 9 QP 1
Q2 12 17 10 QP 1
R21 11 50 6.89671K
R22 12 50 6.89671K
R23 8 9 .335
R24 8 10 .335
C3 11 12 11.5P
EOS 61 17 POLY(1) 33 0 -225.534U 0.537
ETC 18 61 POLY(1) 60 0 -49.665M 1
ITC 0 60 49.665U
RTC 60 0 1E3 TC=-102U
*
* GAIN STAGE AND DOMINANT POLE AT 400HZ
*
EREF 98 50 POLY(2) 99 0 50 0 0 0.5 0.5
G1 98 13 12 11 144.997U
R25 13 98 6.89671E6
C4 13 98 57.6923P
D1 13 99 DX
D2 50 13 DX
*
* COMMON MODE STAGE WITH ZERO AT 1.78KHZ
*
ECM 32 0 POLY(2) 1 0 2 0 0 0.5 0.5
R28 32 33 1E6
R29 33 0 10
CCM 32 33 89.5P
*
* NEGATIVE ZERO AT 0.6MHZ
*
E1 23 98 13 98 1E6
R26 23 24 1E3
R27 24 98 1E-3
FNZ 23 24 VNZ -1
ENZ 25 98 23 24 1
VNZ 26 98 DC 0
CNZ 25 26 265P
*
* POLE AT 5MHZ
*
G2 98 20 24 98 1E-6
R30 20 98 1E6
C5 20 98 32F
*
* A1 OUTPUT STAGE
*
EIN1 99 27 POLY(1) 20 98 1.5072 1.124
Q216 50 27 28 QP375 3.444
Q218 7 29 99 QP350 9.913
R31 28 29 27K
I2 99 29 4.75U
*
* A2 INPUT STAGE
*
I3 99 34 2.516667U
Q3 35 31 37 QP 1
Q4 36 39 38 QP 1
R32 35 50 106.103K
R33 36 50 106.103K
R34 34 37 85.414K
R35 34 38 85.414K
R13 40 41 20K
R14 41 50 20K
R15 41 49 10K
R17 39 41 95K
*
* A2 1ST GAIN STAGE AND SLEW RATE
*
G3 98 42 36 35 30.159U
R36 42 98 1E6
E2 99 43 POLY(1) 99 98 -0.473 1
E3 44 50 POLY(1) 98 50 -0.473 1
D3 42 43 DX
D4 44 42 DX
*
* A2 2ND GAIN STAGE AND DOMINANT POLE AT 12HZ
*
G4 98 45 42 98 2.5U
R37 45 98 132.629E6
C7 45 98 100P
D5 45 59 DX
D6 55 45 DX
VC1 59 99 5
VC2 50 55 5
*
* NEGATIVE ZERO AT 1MHZ
*
E4 51 98 45 98 1E6
R38 51 52 1E6
R39 52 98 1
FNZ2 51 52 VNZ2 -1
ENZ2 53 98 51 52 1
VNZ2 54 98 0
CNZ2 53 54 159F
*
* A2 OUTPUT STAGE
*
ISY 99 50 169U
EIN2 99 56 POLY(1) 52 98 1.6901 112.132E-3
RIN 46 56 10K
Q316 50 46 47 QP375 1.778
Q310 50 47 48 QP375 5.925
Q318 49 48 57 50 QP350 9.913
I4 99 47 4.75U
I5 99 48 9.5U
VSC 99 57 0
FSC 58 99 VSC 1
QSC 46 58 99 QP350 1
RSC 99 58 56
*
* MODELS USED
*
.MODEL QP350 PNP(IS=1.4E-15 BF=70 CJE=.012P CJC=.06P RE=20 RB=350
+RC=200)
.MODEL QP375 PNP(IS=1.4E-15 CJE=.01P CJC=.05P RE=20 RC=400 RB=100)
.MODEL QP AKO:QP350 PNP(BF=150 VA=100)
.MODEL DX D(CJO=1F RS=.1)
.ENDS
*                                       ARG / ADSC
*
* This version of the AD22057 model simulates the worst-case
* parameters of the 'N' grade. The worst-case parameters
* used correspond to those in the data sheet.
*
* Copyright 1995 by Analog Devices
*
* Refer to "README.DOC" file for License Statement. Use of
* this model indicates your acceptance of the terms and pro-
* visions in the License Statement.
*
* Node assignments
*                non-inverting input
*                |  inverting input
*                |  |  positive supply
*                |  |  |  negative supply
*                |  |  |  |  Output
*                |  |  |  |  |  A1 in 
*                |  |  |  |  |  |  A2 in 
*                |  |  |  |  |  |  |  offset
*                |  |  |  |  |  |  |  |
.SUBCKT AD22057N 1  2  99 50 49 30 31 40
*
* A1 INPUT ATTENUATORS, GAIN, AND OFFSET RESISTORS
*
R1 1 3 200K
R2 2 4 200K
RS1 3 16 1K
RS2 4 18 1K
R3 3 5 41K
R4 4 6 41K
R5 5 6 2.55919K TC=-600U
R6 5 50 250
R7 6 50 250
R8 5 19 9K
R9 6 7 10K
R10 19 40 2K
R11 19 50 2K
R12 7 30 100K
R16 7 50 10K
C1 16 50 5P
C2 17 50 5P
*
* A1 INPUT STAGE AND POLE AT 1MHZ
*
I1 99 8 7.55U
Q1 11 16 9 QP 1
Q2 12 17 10 QP 1
R21 11 50 6.89671K
R22 12 50 6.89671K
R23 8 9 .335
R24 8 10 .335
C3 11 12 11.5P
EOS 61 17 POLY(1) 33 0 -61.149U 1.2
ETC 18 61 POLY(1) 60 0 -49.665M 1
ITC 0 60 49.665U
RTC 60 0 1E3 TC=-107U
*
* GAIN STAGE AND DOMINANT POLE AT 400HZ
*
EREF 98 50 POLY(2) 99 0 50 0 0 0.5 0.5
G1 98 13 12 11 144.997U
R25 13 98 6.89671E6
C4 13 98 57.6923P
D1 13 99 DX
D2 50 13 DX
*
* COMMON MODE STAGE WITH ZERO AT 1KHZ
*
ECM 32 0 POLY(2) 1 0 2 0 0 0.5 0.5
R28 32 33 1E6
R29 33 0 10
CCM 32 33 159P
*
* NEGATIVE ZERO AT 0.6MHZ
*
E1 23 98 13 98 1E6
R26 23 24 1E3
R27 24 98 1E-3
FNZ 23 24 VNZ -1
ENZ 25 98 23 24 1
VNZ 26 98 DC 0
CNZ 25 26 265P
*
* POLE AT 5MHZ
*
G2 98 20 24 98 1E-6
R30 20 98 1E6
C5 20 98 32F
*
* A1 OUTPUT STAGE
*
EIN1 99 27 POLY(1) 20 98 1.5072 1.124
Q216 50 27 28 QP375 3.444
Q218 7 29 99 QP350 9.913
R31 28 29 27K
I2 99 29 4.75U
*
* A2 INPUT STAGE
*
I3 99 34 2.516667U
Q3 35 31 37 QP 1
Q4 36 39 38 QP 1
R32 35 50 106.103K
R33 36 50 106.103K
R34 34 37 85.414K
R35 34 38 85.414K
R13 40 41 20K
R14 41 50 20K
R15 41 49 10K
R17 39 41 95K
*
* A2 1ST GAIN STAGE AND SLEW RATE
*
G3 98 42 36 35 30.159U
R36 42 98 1E6
E2 99 43 POLY(1) 99 98 -0.473 1
E3 44 50 POLY(1) 98 50 -0.473 1
D3 42 43 DX
D4 44 42 DX
*
* A2 2ND GAIN STAGE AND DOMINANT POLE AT 12HZ
*
G4 98 45 42 98 2.5U
R37 45 98 132.629E6
C7 45 98 100P
D5 45 59 DX
D6 55 45 DX
VC1 59 99 5
VC2 50 55 5
*
* NEGATIVE ZERO AT 1MHZ
*
E4 51 98 45 98 1E6
R38 51 52 1E6
R39 52 98 1
FNZ2 51 52 VNZ2 -1
ENZ2 53 98 51 52 1
VNZ2 54 98 0
CNZ2 53 54 159F
*
* A2 OUTPUT STAGE
*
ISY 99 50 469U
EIN2 99 56 POLY(1) 52 98 1.6901 112.132E-3
RIN 46 56 10K
Q316 50 46 47 QP375 1.778
Q310 50 47 48 QP375 5.925
Q318 49 48 57 50 QP350 9.913
I4 99 47 4.75U
I5 99 48 9.5U
VSC 99 57 0
FSC 58 99 VSC 1
QSC 46 58 99 QP350 1
RSC 99 58 89
*
* MODELS USED
*
.MODEL QP350 PNP(IS=1.4E-15 BF=70 CJE=.012P CJC=.06P RE=20 RB=350
+RC=200)
.MODEL QP375 PNP(IS=1.4E-15 CJE=.01P CJC=.05P RE=20 RC=400 RB=100)
.MODEL QP AKO:QP350 PNP(BF=150 VA=100)
.MODEL DX D(CJO=1F RS=.1)
.ENDS
* AD22057T SPICE Macro-model            Rev. A, 11/95
*                                       ARG / ADSC
*
* Copyright 1995 by Analog Devices
*
* Refer to "README.DOC" file for License Statement. Use of
* this model indicates your acceptance of the terms and pro-
* visions in the License Statement.
*
* Node assignments
*                non-inverting input
*                |  inverting input
*                |  |  positive supply
*                |  |  |  negative supply
*                |  |  |  |  Output
*                |  |  |  |  |  A1 in 
*                |  |  |  |  |  |  A2 in 
*                |  |  |  |  |  |  |  offset
*                |  |  |  |  |  |  |  |
.SUBCKT AD22057T 1  2  99 50 49 30 31 40
*
* A1 INPUT ATTENUATORS, GAIN, AND OFFSET RESISTORS
*
R1 1 3 200K
R2 2 4 200K
RS1 3 16 1K
RS2 4 18 1K
R3 3 5 41K
R4 4 6 41K
R5 5 6 2.566K TC=-134U
R6 5 50 250
R7 6 50 250
R8 5 19 9K
R9 6 7 10K
R10 19 40 2K
R11 19 50 2K
R12 7 30 100K
R16 7 50 10K
C1 16 50 5P
C2 17 50 5P
*
* A1 INPUT STAGE AND POLE AT 1MHZ
*
I1 99 8 7.55U
Q1 11 16 9 QP 1
Q2 12 17 10 QP 1
R21 11 50 6.89671K
R22 12 50 6.89671K
R23 8 9 .335
R24 8 10 .335
C3 11 12 11.5P
EOS 61 17 POLY(1) 33 0 -220.5U 0.537
ETC 18 61 POLY(1) 60 0 -49.665M 1
ITC 0 60 49.665U
RTC 60 0 1E3 TC=-102U
*
* GAIN STAGE AND DOMINANT POLE AT 400HZ
*
EREF 98 50 POLY(2) 99 0 50 0 0 0.5 0.5
G1 98 13 12 11 144.997U
R25 13 98 6.89671E6
C4 13 98 57.6923P
D1 13 99 DX
D2 50 13 DX
*
* COMMON MODE STAGE WITH ZERO AT 1.78KHZ
*
ECM 32 0 POLY(2) 1 0 2 0 0 0.5 0.5
R28 32 33 1E6
R29 33 0 10
CCM 32 33 89.5P
*
* NEGATIVE ZERO AT 0.6MHZ
*
E1 23 98 13 98 1E6
R26 23 24 1E3
R27 24 98 1E-3
FNZ 23 24 VNZ -1
ENZ 25 98 23 24 1
VNZ 26 98 DC 0
CNZ 25 26 265P
*
* POLE AT 5MHZ
*
G2 98 20 24 98 1E-6
R30 20 98 1E6
C5 20 98 32F
*
* A1 OUTPUT STAGE
*
EIN1 99 27 POLY(1) 20 98 1.4995 1.124
Q216 50 27 28 QP375 3.444
Q218 7 29 99 QP350 9.913
R31 28 29 27K
I2 99 29 4.75U
*
* A2 INPUT STAGE
*
I3 99 34 2.516667U
Q3 35 31 37 QP 1
Q4 36 39 38 QP 1
R32 35 50 106.103K
R33 36 50 106.103K
R34 34 37 85.414K
R35 34 38 85.414K
R13 40 41 20K
R14 41 50 20K
R15 41 49 10K
R17 39 41 95K
*
* A2 1ST GAIN STAGE AND SLEW RATE
*
G3 98 42 36 35 30.159U
R36 42 98 1E6
E2 99 43 POLY(1) 99 98 -0.473 1
E3 44 50 POLY(1) 98 50 -0.473 1
D3 42 43 DX
D4 44 42 DX
*
* A2 2ND GAIN STAGE AND DOMINANT POLE AT 12HZ
*
G4 98 45 42 98 2.5U
R37 45 98 132.629E6
C7 45 98 100P
D5 45 59 DX
D6 55 45 DX
VC1 59 99 5
VC2 50 55 5
*
* NEGATIVE ZERO AT 1MHZ
*
E4 51 98 45 98 1E6
R38 51 52 1E6
R39 52 98 1
FNZ2 51 52 VNZ2 -1
ENZ2 53 98 51 52 1
VNZ2 54 98 0
CNZ2 53 54 159F
*
* A2 OUTPUT STAGE
*
ISY 99 50 169U
EIN2 99 56 POLY(1) 52 98 1.73166 112.132E-3
RIN 46 56 10K
Q316 50 46 47 QP375 1.778
Q310 50 47 48 QP375 5.925
Q318 49 48 57 50 QP350 9.913
I4 99 47 4.75U
I5 99 48 9.5U
VSC 99 57 0
FSC 58 99 VSC 1
QSC 46 58 99 QP350 1
RSC 99 58 56
*
* MODELS USED
*
.MODEL QP350 PNP(IS=1.4E-15 BF=70 CJE=.012P CJC=.06P RE=20 RB=350
+RC=200)
.MODEL QP375 PNP(IS=1.4E-15 CJE=.01P CJC=.05P RE=20 RC=400 RB=100)
.MODEL QP AKO:QP350 PNP(BF=150 VA=100)
.MODEL DX D(CJO=1F RS=.1)
.ENDS
* AD620 SPICE Macro-model               10/95, Rev. B
*                                       ARG / ADSC
*
* Revision History:
*     Rev. B
* Added V2,V3,V12,V13 and D3,D4,D15,D16 to clamp inputs to Q3,Q4 to
* prevent output phase reversal.
*
*
* Copyright 1990 by Analog Devices, Inc.
*
* Refer to "README.DOC" file for License Statement. Use of this model
* indicates your acceptance with the terms and provisions in the License
* Statement.
*
* Node assignments
*                 non-inverting input
*                 |  inverting input
*                 |  |  positive supply
*                 |  |  |  negative supply
*                 |  |  |  |  output
*                 |  |  |  |  |  rg1
*                 |  |  |  |  |  |  rg2
*                 |  |  |  |  |  |  |  ref
*                 |  |  |  |  |  |  |  |
.SUBCKT AD620     1  2  99 50 46 7  8  20
*
* INPUT STAGE
*
I1   7    50   5.0005E-6
I2   8    50   5.0005E-6
IOS  3    4    0.15E-9
VIOS 21   3    15E-6
CCM  3    4    2E-12
CD1  3    0    2E-12
CD2  4    0    2E-12
Q1   5    4    7    QN1
Q2   6    21   8    QN1
D1   7    4    DX
D2   8    21   DX
R1   1    3    400
R2   2    4    400
R3   99   5    100E3
R4   99   6    100E3
R5   7    9    24.7E3
R6   8    10   24.7E3
E1   9    46   (11,5) 375E6
E2   10   46   (11,6) 375E6
V1   99   11   0.5
RV1  99   11   1E3
CC1  5    9    4E-12
CC2  6    10   4E-12
*
* DIFFERENCE AMPLIFIER AND POLE AT 1MHZ
*
I3   18   50   5E-6
R7   99   12   19.099E3
R8   99   15   19.099E3
R9   14   18   8.754E3
R10  17   18   8.754E3
R11  9    13   10E3
R12  13   46   10E3
Q3   12   13   14   QN2
Q4   15   16   17   QN2
R13  19   16   10E3
R14  16   20   10E3
C1   12   15   2.083E-12
EOOS 19   10   POLY(1) (38,98) 200E-6 31.623
EREF 98   0    POLY(2) (99,0) (50,0) 0 0.5 0.5
D3 13 51 DX
D4 16 52 DX
V2 99 51 0.7
V3 99 52 0.7
D15 53 13 DX
D16 54 16 DX
V12 53 50 0.7
V13 54 50 0.7
*
* GAIN STAGE AND DOMINANT POLE AT 0.667HZ
*
R16  25   98   57.296E9
C2   25   98   4.167E-12
G1   98   25   (12,15) 52.360E-6
V6   99   26   1.53
V7   27   50   1.33
D7   25   26   DX
D8   27   25   DX
*
* POLE AT 10MHZ
*
R17  40   98   1
C3   40   98   15.916E-9
G2   98   40   (25,98) 1
*
* COMMON MODE STAGE WITH ZERO AT 100HZ
*
E3   36   98   POLY(2) (1,98) (2,98) 0 0.5 0.5
R18  36   38   1E6
R19  38   98   1
C5   36   38   1.592E-9
*
* OUTPUT STAGE
*
GSY  99   50   POLY(1) (99,50) 0.7725E-3 3.125E-6
RO1  99   45   250
RO2  45   50   250
L1   45   46   1E-6
GO1  45   99   (99,40) 4E-3
GO2  50   45   (40,50) 4E-3
GC1  43   50   (40,45) 4E-3
GC2  44   50   (45,40) 4E-3
F1   45   0    V4 1
F2   0    45   V5 1
V4   41   45   1.65
V5   45   42   1.65
D9   50   43   DY
D10  50   44   DY
D11  99   43   DX
D12  99   44   DX
D13  40   41   DX
D14  42   40   DX
*
* MODELS USED
*
.MODEL DX D(IS=1E-12)
.MODEL DY D(IS=1E-12 BV=50)
.MODEL QN1 NPN(BF=10E3 KF=0.7E-15 AF=1)
.MODEL QN2 NPN(BF=250 KF=0.5E-14 AF=1)
.ENDS AD620
* AD620A SPICE Macro-model              10/95, Rev. B
*                                       ARG / ADSC
*
* This version of the AD620 model simulates the worst-case
* parameters of the 'A' grade. The worst-case parameters
* used correspond to those in the data sheet.
*
*
* Revision History:
*     Rev. B
* Added V2,V3,V12,V13 and D3,D4,D15,D16 to clamp inputs to Q3,Q4 to
* prevent output phase reversal.
*
*
* Copyright 1990 by Analog Devices, Inc.
*
* Refer to "README.DOC" file for License Statement. Use of this model
* indicates your acceptance with the terms and provisions in the License
* Statement.
*
* Node assignments
*                 non-inverting input
*                 |  inverting input
*                 |  |  positive supply
*                 |  |  |  negative supply
*                 |  |  |  |  output
*                 |  |  |  |  |  rg1
*                 |  |  |  |  |  |  rg2
*                 |  |  |  |  |  |  |  ref
*                 |  |  |  |  |  |  |  |
.SUBCKT AD620A    1  2  99 50 46 7  8  20
*
* INPUT STAGE
*
I1   7    50   5.002E-6
I2   8    50   5.002E-6
IOS  3    4    0.5E-9
VIOS 21   3    125E-6
CCM  3    4    2E-12
CD1  3    0    2E-12
CD2  4    0    2E-12
Q1   5    4    7    QN1
Q2   6    21   8    QN1
D1   7    4    DX
D2   8    21   DX
R1   1    3    400
R2   2    4    400
R3   99   5    100E3
R4   99   6    100E3
R5   7    9    24.7E3
R6   8    10   24.7E3
E1   9    46   (11,5) 375E6
E2   10   46   (11,6) 375E6
V1   99   11   0.5
RV1  99   11   1E3
CC1  5    9    4E-12
CC2  6    10   4E-12
*
* DIFFERENCE AMPLIFIER AND POLE AT 1MHZ
*
I3   18   50   5E-6
R7   99   12   11.937E3
R8   99   15   11.937E3
R9   14   18   1.592E3
R10  17   18   1.592E3
R11  9    13   10E3
R12  13   46   10E3
Q3   12   13   14   QN2
Q4   15   16   17   QN2
R13  19   16   10E3
R14  16   20   10E3
C1   12   15   6.667E-12
EOOS 19   10   POLY(1) (38,98) 1.5E-3 223.872
EREF 98   0    POLY(2) (99,0) (50,0) 0 0.5 0.5
D3 13 51 DX
D4 16 52 DX
V2 99 51 0.7
V3 99 52 0.7
D15 53 13 DX
D16 54 16 DX
V12 53 50 0.7
V13 54 50 0.7
*
* GAIN STAGE AND DOMINANT POLE AT 0.667HZ
*
R16  25   98   35.810E9
C2   25   98   6.667E-12
G1   98   25   (12,15) 83.776E-6
V6   99   26   1.53
V7   27   50   1.33
D7   25   26   DX
D8   27   25   DX
*
* POLE AT 10MHZ
*
R17  40   98   1
C3   40   98   15.916E-9
G2   98   40   (25,98) 1
*
* COMMON MODE STAGE WITH ZERO AT 708HZ
*
E3   36   98   POLY(2) (1,98) (2,98) 0 0.5 0.5
R18  36   38   1E6
R19  38   98   1
C5   36   38   224.812E-12
*
* OUTPUT STAGE
*
GSY  99   50   POLY(1) (99,50) 1.1725E-3 3.125E-6
RO1  99   45   250
RO2  45   50   250
L1   45   46   1E-6
GO1  45   99   (99,40) 4E-3
GO2  50   45   (40,50) 4E-3
GC1  43   50   (40,45) 4E-3
GC2  44   50   (45,40) 4E-3
F1   45   0    V4 1
F2   0    45   V5 1
V4   41   45   1.65
V5   45   42   1.65
D9   50   43   DY
D10  50   44   DY
D11  99   43   DX
D12  99   44   DX
D13  40   41   DX
D14  42   40   DX
*
* MODELS USED
*
.MODEL DX D(IS=1E-12)
.MODEL DY D(IS=1E-12 BV=50)
.MODEL QN1 NPN(BF=2.5E3 KF=0.7E-15 AF=1)
.MODEL QN2 NPN(BF=250 KF=0.5E-14 AF=1)
.ENDS AD620A
* AD620B SPICE Macro-model              10/95, Rev. B
*                                       ARG / ADSC
*
* This version of the AD620 model simulates the worst-case
* parameters of the 'B' grade. The worst-case parameters
* used correspond to those in the data sheet.
*
*
* Revision History:
*     Rev. B
* Added V2,V3,V12,V13 and D3,D4,D15,D16 to clamp inputs to Q3,Q4 to
* prevent output phase reversal.
*
*
* Copyright 1990 by Analog Devices, Inc.
*
* Refer to "README.DOC" file for License Statement. Use of this model
* indicates your acceptance with the terms and provisions in the License
* Statement.
*
* Node assignments
*                 non-inverting input
*                 |  inverting input
*                 |  |  positive supply
*                 |  |  |  negative supply
*                 |  |  |  |  output
*                 |  |  |  |  |  rg1
*                 |  |  |  |  |  |  rg2
*                 |  |  |  |  |  |  |  ref
*                 |  |  |  |  |  |  |  |
.SUBCKT AD620B    1  2  99 50 46 7  8  20
*
* INPUT STAGE
*
I1   7    50   5.001E-6
I2   8    50   5.001E-6
IOS  3    4    0.25E-9
VIOS 21   3    50E-6
CCM  3    4    2E-12
CD1  3    0    2E-12
CD2  4    0    2E-12
Q1   5    4    7    QN1
Q2   6    21   8    QN1
D1   7    4    DX
D2   8    21   DX
R1   1    3    400
R2   2    4    400
R3   99   5    100E3
R4   99   6    100E3
R5   7    9    24.7E3
R6   8    10   24.7E3
E1   9    46   (11,5) 375E6
E2   10   46   (11,6) 375E6
V1   99   11   0.5
RV1  99   11   1E3
CC1  5    9    4E-12
CC2  6    10   4E-12
*
* DIFFERENCE AMPLIFIER AND POLE AT 1MHZ
*
I3   18   50   5E-6
R7   99   12   11.937E3
R8   99   15   11.937E3
R9   14   18   1.592E3
R10  17   18   1.592E3
R11  9    13   10E3
R12  13   46   10E3
Q3   12   13   14   QN2
Q4   15   16   17   QN2
R13  19   16   10E3
R14  16   20   10E3
C1   12   15   6.667E-12
EOOS 19   10   POLY(1) (38,98) 0.75E-3 100
EREF 98   0    POLY(2) (99,0) (50,0) 0 0.5 0.5
D3 13 51 DX
D4 16 52 DX
V2 99 51 0.7
V3 99 52 0.7
D15 53 13 DX
D16 54 16 DX
V12 53 50 0.7
V13 54 50 0.7
*
* GAIN STAGE AND DOMINANT POLE AT 0.667HZ
*
R16  25   98   35.810E9
C2   25   98   6.667E-12
G1   98   25   (12,15) 83.776E-6
V6   99   26   1.53
V7   27   50   1.33
D7   25   26   DX
D8   27   25   DX
*
* POLE AT 10MHZ
*
R17  40   98   1
C3   40   98   15.916E-9
G2   98   40   (25,98) 1
*
* COMMON MODE STAGE WITH ZERO AT 316HZ
*
E3   36   98   POLY(2) (1,98) (2,98) 0 0.5 0.5
R18  36   38   1E6
R19  38   98   1
C5   36   38   503.292E-12
*
* OUTPUT STAGE
*
GSY  99   50   POLY(1) (99,50) 1.1725E-3 3.125E-6
RO1  99   45   250
RO2  45   50   250
L1   45   46   1E-6
GO1  45   99   (99,40) 4E-3
GO2  50   45   (40,50) 4E-3
GC1  43   50   (40,45) 4E-3
GC2  44   50   (45,40) 4E-3
F1   45   0    V4 1
F2   0    45   V5 1
V4   41   45   1.65
V5   45   42   1.65
D9   50   43   DY
D10  50   44   DY
D11  99   43   DX
D12  99   44   DX
D13  40   41   DX
D14  42   40   DX
*
* MODELS USED
*
.MODEL DX D(IS=1E-12)
.MODEL DY D(IS=1E-12 BV=50)
.MODEL QN1 NPN(BF=5E3 KF=0.7E-15 AF=1)
.MODEL QN2 NPN(BF=250 KF=0.5E-14 AF=1)
.ENDS AD620B
* AD620S SPICE Macro-model              10/95, Rev. B
*                                       ARG / ADSC
*
* This version of the AD620 model simulates the worst-case
* parameters of the 'S' grade. The worst-case parameters
* used correspond to those in the data sheet.
*
*
* Revision History:
*     Rev. B
* Added V2,V3,V12,V13 and D3,D4,D15,D16 to clamp inputs to Q3,Q4 to
* prevent output phase reversal.
*
*
* Copyright 1990 by Analog Devices, Inc.
*
* Refer to "README.DOC" file for License Statement. Use of this model
* indicates your acceptance with the terms and provisions in the License
* Statement.
*
* Node assignments
*                 non-inverting input
*                 |  inverting input
*                 |  |  positive supply
*                 |  |  |  negative supply
*                 |  |  |  |  output
*                 |  |  |  |  |  rg1
*                 |  |  |  |  |  |  rg2
*                 |  |  |  |  |  |  |  ref
*                 |  |  |  |  |  |  |  |
.SUBCKT AD620S    1  2  99 50 46 7  8  20
*
* INPUT STAGE
*
I1   7    50   5.002E-6
I2   8    50   5.002E-6
IOS  3    4    0.5E-9
VIOS 21   3    125E-6
CCM  3    4    2E-12
CD1  3    0    2E-12
CD2  4    0    2E-12
Q1   5    4    7    QN1
Q2   6    21   8    QN1
D1   7    4    DX
D2   8    21   DX
R1   1    3    400
R2   2    4    400
R3   99   5    100E3
R4   99   6    100E3
R5   7    9    24.7E3
R6   8    10   24.7E3
E1   9    46   (11,5) 375E6
E2   10   46   (11,6) 375E6
V1   99   11   0.5
RV1  99   11   1E3
CC1  5    9    4E-12
CC2  6    10   4E-12
*
* DIFFERENCE AMPLIFIER AND POLE AT 1MHZ
*
I3   18   50   5E-6
R7   99   12   11.937E3
R8   99   15   11.937E3
R9   14   18   1.592E3
R10  17   18   1.592E3
R11  9    13   10E3
R12  13   46   10E3
Q3   12   13   14   QN2
Q4   15   16   17   QN2
R13  19   16   10E3
R14  16   20   10E3
C1   12   15   6.667E-12
EOOS 19   10   POLY(1) (38,98) 1.5E-3 223.872
EREF 98   0    POLY(2) (99,0) (50,0) 0 0.5 0.5
*
* GAIN STAGE AND DOMINANT POLE AT 0.667HZ
*
R16  25   98   35.810E9
C2   25   98   6.667E-12
G1   98   25   (12,15) 83.776E-6
V6   99   26   1.53
V7   27   50   1.33
D7   25   26   DX
D8   27   25   DX
*
* POLE AT 10MHZ
*
R17  40   98   1
C3   40   98   15.916E-9
G2   98   40   (25,98) 1
*
* COMMON MODE STAGE WITH ZERO AT 708HZ
*
E3   36   98   POLY(2) (1,98) (2,98) 0 0.5 0.5
R18  36   38   1E6
R19  38   98   1
C5   36   38   224.812E-12
*
* OUTPUT STAGE
*
GSY  99   50   POLY(1) (99,50) 1.1725E-3 3.125E-6
RO1  99   45   250
RO2  45   50   250
L1   45   46   1E-6
GO1  45   99   (99,40) 4E-3
GO2  50   45   (40,50) 4E-3
GC1  43   50   (40,45) 4E-3
GC2  44   50   (45,40) 4E-3
F1   45   0    V4 1
F2   0    45   V5 1
V4   41   45   1.65
V5   45   42   1.65
D9   50   43   DY
D10  50   44   DY
D11  99   43   DX
D12  99   44   DX
D13  40   41   DX
D14  42   40   DX
*
* MODELS USED
*
.MODEL DX D(IS=1E-12)
.MODEL DY D(IS=1E-12 BV=50)
.MODEL QN1 NPN(BF=2.5E3 KF=0.7E-15 AF=1)
.MODEL QN2 NPN(BF=250 KF=0.5E-14 AF=1)
.ENDS AD620S
* AD626 SPICE Macro-model               Rev. A, 11/95
*                                       ARG / ADSC
*
* Copyright 1995 by Analog Devices
*
* Refer to "README.DOC" file for License Statement. Use of
* this model indicates your acceptance of the terms and pro-
* visions in the License Statement.
*
* Node assignments
*                non-inverting input
*                |  inverting input
*                |  |  positive supply
*                |  |  |  negative supply
*                |  |  |  |  Output  
*                |  |  |  |  |  gain=100
*                |  |  |  |  |  |  ground  
*                |  |  |  |  |  |  |  filter
*                |  |  |  |  |  |  |  |
.SUBCKT AD626    1  2  99 50 49 30 90 31
*
* A1 INPUT ATTENUATORS, GAIN, AND OFFSET RESISTORS
*
R1 1 3 200K
R2 2 4 200K
RS1 3 16 1K
RS2 4 18 1K
R3 3 5 41K
R4 4 6 41K
R5 5 6 4.244K TC=-13.4U
R6 5 0 540
R7 6 0 540
R9 6 7 10K
R11 5 0 10K
C1 16 0 5P
C2 17 0 5P
*
* A1 INPUT STAGE AND POLE AT 1MHZ
*
I1 99 8 7.55U
Q1 11 16 9 QP 1
Q2 12 17 10 QP 1
R21 11 50 13.7934K
R22 12 50 13.7934K
R23 8 9 6.89705K
R24 8 10 6.89705K
C3 11 12 5.769P
EOS 61 17 POLY(1) 33 98 1.43U 0.537
ETC 18 61 POLY(1) 60 0 -49.665M 1
ITC 0 60 49.665U
RTC 60 0 1K TC=-81.8U
*
* GAIN STAGE AND DOMINANT POLE AT 120HZ
*
EREF 98 0 POLY(2) 99 0 50 0 0 0.5 0.5
G1 98 13 12 11 72.4983U
R25 13 98 13.7934E6
C4 13 98 96.154P
D1 13 99 DX
D2 50 13 DX
*
* COMMON MODE STAGE WITH ZERO AT 1.78KHZ
*
ECM 32 98 POLY(2) 1 98 2 98 0 0.5 0.5
R28 32 33 1E6
R29 33 98 10
CCM 32 33 503P
*
* NEGATIVE ZERO AT 0.6MHZ
*
E1 23 98 13 98 1E6
R26 23 24 1E3
R27 24 98 1E-3
FNZ 23 24 VNZ -1
ENZ 25 98 23 24 1
VNZ 26 98 DC 0
CNZ 25 26 265P
*
* POLE AT 5MHZ
*
G2 98 20 24 98 1E-6
R30 20 98 1E6
C5 20 98 32F
*
* A1 OUTPUT STAGE
*
EIN1 99 27 POLY(1) 20 98 1.5102 1.124
Q216 50 27 28 QP375 3.444
Q218 7 29 99 QP350 9.913
R31 28 29 27K
I2 99 29 4.75U
R8 7 50 10K
R12 7 31 100K
*
* A2 INPUT STAGE
*
I3 99 34 2.516667U
Q3 35 31 37 QP 1
Q4 36 39 38 QP 1
R32 35 50 106.103K
R33 36 50 106.103K
R34 34 37 85.414K
R35 34 38 85.414K
R10 41 0 10K
R13 49 50 10K
R14 41 30 555.71 TC=-4.5U
R15 41 49 10K
R17 39 41 95K
*
* A2 1ST GAIN STAGE AND SLEW RATE
*
G3 98 42 36 35 30.159U
R36 42 98 1E6
E2 99 43 POLY(1) 99 98 -0.473 1
E3 44 50 POLY(1) 98 50 -0.473 1
D3 42 43 DX
D4 44 42 DX
*
* A2 2ND GAIN STAGE AND DOMINANT POLE AT 12HZ
*
G4 98 45 42 98 2.5U
R37 45 98 132.629E6
C7 45 98 100P
D5 45 59 DX
D6 55 45 DX
VC1 59 99 5
VC2 50 55 5
*
* NEGATIVE ZERO AT 1MHZ
*
E4 51 98 45 98 1E6
R38 51 52 1E6
R39 52 98 1
FNZ2 51 52 VNZ2 -1
ENZ2 53 98 51 52 1
VNZ2 54 98 0
CNZ2 53 54 159F
*
* A2 OUTPUT STAGE
*
GSY 99 50 99 50 29.2U
EIN2 99 56 POLY(1) 52 98 1.75608 46.605E-3
RIN 46 56 10K
Q316 50 46 47 QP375 1.778
Q310 50 47 48 QP375 5.925
Q318 49 48 57 50 QP350 9.913
I4 99 47 4.75U
I5 99 48 9.5U
VSC 99 57 0.03
FSC 58 99 VSC 1
QSC 46 58 99 QP350 1
RSC 99 58 48
*
* MODELS USED
*
.MODEL QP350 PNP(IS=1.4E-15 BF=70 CJE=.012P CJC=.06P RE=20 RB=350
+RC=200)
.MODEL QP375 PNP(IS=1.4E-15 CJE=.01P CJC=.05P RE=20 RC=400 RB=100)
.MODEL QP AKO:QP350 PNP(BF=150 VA=100)
.MODEL DX D(CJO=1F RS=.1)
.ENDS
* AD626A SPICE Macro-model              Rev. A, 11/95
*                                       ARG / ADSC
*
* This version of the AD626 model simulates the worst-case
* parameters of the 'A' grade. The worst-case parameters
* used correspond to those in the data sheet.
*
* Copyright 1995 by Analog Devices
*
* Refer to "README.DOC" file for License Statement. Use of
* this model indicates your acceptance of the terms and pro-
* visions in the License Statement.
*
* Node assignments
*                non-inverting input
*                |  inverting input
*                |  |  positive supply
*                |  |  |  negative supply
*                |  |  |  |  output  
*                |  |  |  |  |  gain=100
*                |  |  |  |  |  |  ground  
*                |  |  |  |  |  |  |  filter
*                |  |  |  |  |  |  |  |
.SUBCKT AD626A   1  2  99 50 49 30 90 31
*
* A1 INPUT ATTENUATORS, GAIN, AND OFFSET RESISTORS
*
R1 1 3 200K
R2 2 4 200K
RS1 3 16 1K
RS2 4 18 1K
R3 3 5 41K
R4 4 6 41K
R5 5 6 4.158K TC=-3.3U
R6 5 0 540
R7 6 0 540
R9 6 7 10K
R11 5 0 10K
C1 16 0 5P
C2 17 0 5P
*
* A1 INPUT STAGE AND POLE AT 1MHZ
*
I1 99 8 7.55U
Q1 11 16 9 QP 1
Q2 12 17 10 QP 1
R21 11 50 13.7934K
R22 12 50 13.7934K
R23 8 9 6.89705K
R24 8 10 6.89705K
C3 11 12 5.769P
EOS 61 17 POLY(1) 33 98 78.2U 7.585
ETC 18 61 POLY(1) 60 0 -49.665M 1
ITC 0 60 49.665U
RTC 60 0 1K TC=-81.8U
*
* GAIN STAGE AND DOMINANT POLE AT 120HZ
*
EREF 98 0 POLY(2) 99 0 50 0 0 0.5 0.5
G1 98 13 12 11 72.4983U
R25 13 98 13.7934E6
C4 13 98 96.154P
D1 13 99 DX
D2 50 13 DX
*
* COMMON MODE STAGE WITH ZERO AT 2.5KHZ
*
ECM 32 98 POLY(2) 1 98 2 98 0 0.5 0.5
R28 32 33 1E6
R29 33 98 10
CCM 32 33 63.36P
*
* NEGATIVE ZERO AT 0.6MHZ
*
E1 23 98 13 98 1E6
R26 23 24 1E3
R27 24 98 1E-3
FNZ 23 24 VNZ -1
ENZ 25 98 23 24 1
VNZ 26 98 DC 0
CNZ 25 26 265P
*
* POLE AT 5MHZ
*
G2 98 20 24 98 1E-6
R30 20 98 1E6
C5 20 98 32F
*
* A1 OUTPUT STAGE
*
EIN1 99 27 POLY(1) 20 98 1.5102 1.124
Q216 50 27 28 QP375 3.444
Q218 7 29 99 QP350 9.913
R31 28 29 27K
I2 99 29 4.75U
R8 7 50 10K
R12 7 31 100K
*
* A2 INPUT STAGE
*
I3 99 34 2.516667U
Q3 35 31 37 QP 1
Q4 36 39 38 QP 1
R32 35 50 106.103K
R33 36 50 106.103K
R34 34 37 85.414K
R35 34 38 85.414K
R10 41 0 10K
R13 49 50 10K
R14 41 30 552.13 TC=-7U
R15 41 49 10K
R17 39 41 95K
*
* A2 1ST GAIN STAGE AND SLEW RATE
*
G3 98 42 36 35 30.159U
R36 42 98 1E6
E2 99 43 POLY(1) 99 98 -0.473 1
E3 44 50 POLY(1) 98 50 -0.473 1
D3 42 43 DX
D4 44 42 DX
*
* A2 2ND GAIN STAGE AND DOMINANT POLE AT 12HZ
*
G4 98 45 42 98 2.5U
R37 45 98 132.629E6
C7 45 98 100P
D5 45 59 DX
D6 55 45 DX
VC1 59 99 5
VC2 50 55 5
*
* NEGATIVE ZERO AT 1MHZ
*
E4 51 98 45 98 1E6
R38 51 52 1E6
R39 52 98 1
FNZ2 51 52 VNZ2 -1
ENZ2 53 98 51 52 1
VNZ2 54 98 0
CNZ2 53 54 159F
*
* A2 OUTPUT STAGE
*
GSY 99 50 99 50 39.4U
EIN2 99 101 POLY(1) 52 98 0 46.605E-3;1.6901 46.605E-3
VOS 101 56 {VOS}
RIN 46 56 10K
Q316 50 46 47 QP375 1.778
Q310 50 47 48 QP375 5.925
Q318 49 48 57 50 QP350 9.913
I4 99 47 4.75U
I5 99 48 9.5U
VSC 99 57 0.23
FSC 58 99 VSC 1
QSC 46 58 99 QP350 1
RSC 99 58 44
*
* MODELS USED
*
.MODEL QP350 PNP(IS=1.4E-15 BF=70 CJE=.012P CJC=.06P RE=20 RB=350
+RC=200)
.MODEL QP375 PNP(IS=1.4E-15 CJE=.01P CJC=.05P RE=20 RC=400 RB=100)
.MODEL QP AKO:QP350 PNP(BF=150 VA=100)
.MODEL DX D(CJO=1F RS=.1)
.ENDS
* AD626B SPICE Macro-model              Rev. A, 11/95
*                                       ARG / ADSC
*
* This version of the AD626 model simulates the worst-case
* parameters of the 'B' grade. The worst-case parameters
* used correspond to those in the data sheet.
*
* Copyright 1995 by Analog Devices
*
* Refer to "README.DOC" file for License Statement. Use of
* this model indicates your acceptance of the terms and pro-
* visions in the License Statement.
*
* Node assignments
*                non-inverting input
*                |  inverting input
*                |  |  positive supply
*                |  |  |  negative supply
*                |  |  |  |  output  
*                |  |  |  |  |  gain=100
*                |  |  |  |  |  |  ground  
*                |  |  |  |  |  |  |  filter
*                |  |  |  |  |  |  |  |
.SUBCKT AD626B   1  2  99 50 49 30 90 31
*
* A1 INPUT ATTENUATORS, GAIN, AND OFFSET RESISTORS
*
R1 1 3 200K
R2 2 4 200K
RS1 3 16 1K
RS2 4 18 1K
R3 3 5 41K
R4 4 6 41K
R5 5 6 4.201K TC=-13.5U
R6 5 0 540
R7 6 0 540
R9 6 7 10K
R11 5 0 10K
C1 16 0 5P
C2 17 0 5P
*
* A1 INPUT STAGE AND POLE AT 1MHZ
*
I1 99 8 7.55U
Q1 11 16 9 QP 1
Q2 12 17 10 QP 1
R21 11 50 13.7934K
R22 12 50 13.7934K
R23 8 9 6.89705K
R24 8 10 6.89705K
C3 11 12 5.769P
EOS 61 17 POLY(1) 33 98 35.61U 1.698
ETC 18 61 POLY(1) 60 0 -49.665M 1
ITC 0 60 49.665U
RTC 60 0 1K TC=-81.8U
*
* GAIN STAGE AND DOMINANT POLE AT 120HZ
*
EREF 98 0 POLY(2) 99 0 50 0 0 0.5 0.5
G1 98 13 12 11 72.4983U
R25 13 98 13.7934E6
C4 13 98 96.154P
D1 13 99 DX
D2 50 13 DX
*
* COMMON MODE STAGE WITH ZERO AT 1.78KHZ
*
ECM 32 98 POLY(2) 1 98 2 98 0 0.5 0.5
R28 32 33 1E6
R29 33 98 10
CCM 32 33 283P
*
* NEGATIVE ZERO AT 0.6MHZ
*
E1 23 98 13 98 1E6
R26 23 24 1E3
R27 24 98 1E-3
FNZ 23 24 VNZ -1
ENZ 25 98 23 24 1
VNZ 26 98 DC 0
CNZ 25 26 265P
*
* POLE AT 5MHZ
*
G2 98 20 24 98 1E-6
R30 20 98 1E6
C5 20 98 32F
*
* A1 OUTPUT STAGE
*
EIN1 99 27 POLY(1) 20 98 1.5102 1.124
*VOS 101 27 {VOS}
Q216 50 27 28 QP375 3.444
Q218 7 29 99 QP350 9.913
R31 28 29 27K
I2 99 29 4.75U
R8 7 50 10K
R12 7 31 100K
*
* A2 INPUT STAGE
*
I3 99 34 2.516667U
Q3 35 31 37 QP 1
Q4 36 39 38 QP 1
R32 35 50 106.103K
R33 36 50 106.103K
R34 34 37 85.414K
R35 34 38 85.414K
R10 41 0 10K
R13 49 50 10K