* Copyright 1994 by Analog Devices, Inc.
*
* ADG406 SPICE Macro-model                10/95, Rev. D
*                                           WF / ADSC
*
* Revision History: NONE
*
*       NOTE: This model was setup with typical leakage currents
*               at +25C for ADG406 
*
* Copyright 1995 by Analog Devices, Inc.
*
* Refer to "README.DOC" file for License Statement.  Use of this 
* model indicates your acceptance with the terms and provisions 
* in the License Statement.
*
* Node assignments
* 19 - S1, 20 - S2, 21 - S3, 22 - S4, 23 - S5, 24 - S6, 25 - S7
* 26 - S8, 11 - S9,10 - S10, 9 - S11, 8 - S12, 7 - S13, 6 - S14
* 5 - S15, 4 - S16, 14 - A3, 15 - A2, 16 - A1, 17 - A0, 18 - EN
* 28 - D, 1 - VDD, 12 - GND, 27 - VSS
*                    
* AD734 SPICE Macro-model 4/92, Rev. B
* AAG / PMI
*
* Revision History:
* Removed input signal current compensation: GX1,GY1,GZ1
* Added Isy vs. Vsy
*
* Copyright 1992 by Analog Devices, Inc.
*
* Refer to "README.DOC" file for License Statement.  Use of this model
* indicates your acceptance with the terms and provisions in the License Statement.
*
* Node assignments
*             X1
*             |  X2
*             |  |  UO
*             |  |  |  U1
*             |  |  |  |  U2
*             |  |  |  |  |  Y1
*             |  |  |  |  |  |  Y2
*             |  |  |  |  |  |  |  VN
*             |  |  |  |  |  |  |  |   ER
*             |  |  |  |  |  |  |  |   |  Z2
*             |  |  |  |  |  |  |  |   |  |  Z1
*             |  |  |  |  |  |  |  |   |  |  |  W
*             |  |  |  |  |  |  |  |   |  |  |  |  DD
*             |  |  |  |  |  |  |  |   |  |  |  |  |  VP
*             |  |  |  |  |  |  |  |   |  |  |  |  |  |
.SUBCKT AD734 10 11 49 50 51 20 21 200 58 31 30 77 54 100
*
EREF 300 0 POLY(2) 100 0 200 0 (0,0.5,0.5)
*
* X INPUT STAGE & POLE AT 40 MHz
*
CINX 10 11 2E-12
IBX1 10 0 DC 50E-9
IBX2 11 0 DC 50E-9
EOSX 12 10 POLY(1) 18 300 15E-3 1
RX1 12 13 25E3
RX2 13 11 25E3
*
GX1 300 14 12 11 1E-6
RX3 14 300 9.995E5
CX1 14 300 3.9809E-15
VX1 100 15 DC 3.1875
DX1 14 15 DX
VX2 16 200 DC 3.1875
DX2 16 14 DX
*
* X INPUT STAGE COMMON-MODE REJECTION AND ZERO 40 kHz
*
ECMX 17 300 13 300 56.234
RCMX1 17 18 1E6
CCMX 17 18 3.9789E-12
RCMX2 18 300 1
*
* Y INPUT STAGE & POLE AT 40 MHz
*
CINY 20 21 2E-12
IBY1 20 0 DC 50E-9
IBY2 21 0 DC 50E-9
EOSY 22 20 POLY(1) 28 300 10E-3 1
RY1 22 23 25E3
RY2 23 21 25E3
*
GY1 300 24 22 21 1E-6
RY3 24 300 9.995E5
CY1 24 300 3.9809E-15
VY1 100 25 DC 3.1875
DY1 24 25 DX
VY2 26 200 DC 3.1875
DY2 26 24 DX
*
* Y INPUT STAGE COMMON-MODE REJECTION AND ZERO 80 kHz
*
ECMY 27 300 23 300 56.234
RCMY1 27 28 1E6
CCMY 27 28 1.9895E-12
RCMY2 28 300 1
*
* Z INPUT STAGE & POLE AT 40 MHz
*
CINZ 30 31 2E-12
IBZ1 30 0 DC 50E-9
IBZ2 31 0 DC 50E-9
EOSZ 32 30 POLY(1) 38 300 20E-3 1
RZ1 32 33 25E3
RZ2 33 31 25E3
*
GZ1 300 34 32 31 1E-6
RZ3 34 300 1E6
CZ1 34 300 3.9789E-15
VZ1 100 35 DC 3.1875
DZ1 34 35 DX
VZ2 36 200 DC 3.1875
DZ2 36 34 DX
*
* Z INPUT STAGE COMMON-MODE REJECTION AND ZERO 40 kHz
*
ECMZ 37 300 33 300 56.234
RCMZ1 37 38 1E6
CCMZ 37 38 3.9789E-12
RCMZ2 38 300 1
*
* DENOMINATOR CONTROL & INTERNAL REFERENCE
*
QU1 100 49 50 QNU
RU1 50 51 28E3
*
VU 100 52
QU2 52 0 53 QNU
RU2 53 54 0.001
IU 53 200 DC 10E-6
FU1 300 55 VU 1.01
RU3 55 300 1E6
*
VR1 57 200 DC 8
QR 59 57 58 QPU
RR 57 58 1E5
VR2 59 200
FU4 300 56 VR2 1
RU4 56 300 28E3
*
EU 60 300 POLY(3) 50 51 55 300 56 300 (0,1.0101,1,1.0101)
RU5 60 300 1E6
*
* 250 MHz MULTIPLIER CORE
*
EXY 46 300 POLY(2) 14 300 24 300 (0,0,0,0,1)
RXY 46 300 1E6
GXY 300 47 46 300 1
GU 47 300 POLY(2) 60 300 47 300 (0,0,0,0,1)
RU 47 300 1E12
CU 47 300 6.65E-9
EW 48 300 POLY(2) 47 300 34 300 (0,1,-1)
RW 48 300 1E6
*
* OUTPUT AMP BUFFER
*
GW 64 300 48 300 1
QW1 100 0 61 QNW
QW2 200 0 62 QPW
QW3 63 62 64 QNW
QW4 65 61 64 QPW
RW1 100 63 1
RW2 65 200 1
IW1 100 62 DC 100E-6
IW2 61 200 DC 100E-6
VW1 100 66 DC 10
DW1 66 63 DX
VW2 67 200 DC 10
DW2 65 67 DX
*
* OUTPUT AMP GAIN STAGE
*
GW1 300 68 100 63 1
GW2 68 300 65 200 1
RW3 68 300 1.38E3
CW1 68 300 19E-9
VW3 100 69 DC 3.8
DW3 68 69 DX
VW4 70 200 DC 3.8
DW4 70 68 DX
*
* TRANSIENT SUPPLY CURRENT COMPENSATION
*
DCC1 80 100 DX
GCC 0 80 48 300 1
DCC2 0 80 DX
DEE1 81 0 DX
GEE 81 0 300 48 1
DEE2 200 81 DX
*
* POLE AT 17.5 MHz
*
GW3 300 71 68 300 1E-6
RW4 71 300 1E6
CW2 71 300 9.0946E-15
*
IDC 100 200 DC 4.0125E-3
RDC1 100 78 3.2E3
RDC2 78 200 3.2E3
DO1 100 72 DX
GO1 72 200 76 71 25E-3
DO2 200 72 DY
DO3 100 73 DX
GO2 73 200 71 76 25E-3
DO4 200 73 DY
VSC1 74 76 DC 0.4
DSC1 71 74 DX
VSC2 76 75 DC 0.4
DSC2 75 71 DX
GO3 76 100 100 71 25E-3
GO4 200 76 71 200 25E-3
RO1 100 76 40
RO2 76 200 40
LO 76 77 100E-9
*
* MODELS USED
*
.MODEL QNU NPN (BF=100 IS=1E-16)
.MODEL QPU PNP (BF=100 IS=1E-16)
.MODEL QNW NPN (BF=1E9 IS=1E-15)
.MODEL QPW PNP (BF=1E9 IS=1E-15)
.MODEL DX D(IS=1E-15)
.MODEL DY D(IS=1E-15 BV=50)
.ENDS AD734
* AD734A SPICE Macro-model 4/92, Rev. B
* AAG / PMI
*
* This version of the AD734 multiplier model simulates the worst case
* parameters of the 'A' grade.  The worst case parameters used
* correspond to those in the data sheet.
*
* Revision History:
* Removed input signal current compensation: GX1,GY1,GZ1
* Added Isy vs. Vsy
*
* Copyright 1992 by Analog Devices, Inc.
*
* Refer to "README.DOC" file for License Statement.  Use of this model
* indicates your acceptance with the terms and provisions in the License Statement.
*
* Node assignments
*              X1
*              |  X2
*              |  |  UO
*              |  |  |  U1
*              |  |  |  |  U2
*              |  |  |  |  |  Y1
*              |  |  |  |  |  |  Y2
*              |  |  |  |  |  |  |  VN
*              |  |  |  |  |  |  |  |   ER
*              |  |  |  |  |  |  |  |   |  Z2
*              |  |  |  |  |  |  |  |   |  |  Z1
*              |  |  |  |  |  |  |  |   |  |  |  W
*              |  |  |  |  |  |  |  |   |  |  |  |  DD
*              |  |  |  |  |  |  |  |   |  |  |  |  |  VP
*              |  |  |  |  |  |  |  |   |  |  |  |  |  |
.SUBCKT AD734A 10 11 49 50 51 20 21 200 58 31 30 77 54 100
*
EREF 300 0 POLY(2) 100 0 200 0 (0,0.5,0.5)
*
* X INPUT STAGE & POLE AT 40 MHz
*
CINX 10 11 2E-12
IBX1 10 0 DC 200E-9
IBX2 11 0 DC 200E-9
EOSX 12 10 POLY(1) 18 300 15E-3 1
RX1 12 13 25E3
RX2 13 11 25E3
*
GX1 300 14 12 11 1E-6
RX3 14 300 9.98E5
CX1 14 300 3.9868E-15
VX1 100 15 DC 3.1875
DX1 14 15 DX
VX2 16 200 DC 3.1875
DX2 16 14 DX
*
* X INPUT STAGE COMMON-MODE REJECTION AND ZERO 225 kHz
*
ECMX 17 300 13 300 316.23
RCMX1 17 18 1E6
CCMX 17 18 707.56E-15
RCMX2 18 300 1
*
* Y INPUT STAGE & POLE AT 40 MHz
*
CINY 20 21 2E-12
IBY1 20 0 DC 200E-9
IBY2 21 0 DC 200E-9
EOSY 22 20 POLY(1) 28 300 10E-3 1
RY1 22 23 25E3
RY2 23 21 25E3
*
GY1 300 24 22 21 1E-6
RY3 24 300 9.98E5
CY1 24 300 3.9868E-15
VY1 100 25 DC 3.1875
DY1 24 25 DX
VY2 26 200 DC 3.1875
DY2 26 24 DX
*
* Y INPUT STAGE COMMON-MODE REJECTION AND ZERO 450 kHz
*
ECMY 27 300 23 300 316.23
RCMY1 27 28 1E6
CCMY 27 28 353.79E-15
RCMY2 28 300 1
*
* Z INPUT STAGE & POLE AT 40 MHz
*
CINZ 30 31 2E-12
IBZ1 30 0 DC 200E-9
IBZ2 31 0 DC 200E-9
EOSZ 32 30 POLY(1) 38 300 20E-3 1
RZ1 32 33 25E3
RZ2 33 31 25E3
*
GZ1 300 34 32 31 1E-6
RZ3 34 300 1E6
CZ1 34 300 3.9789E-15
VZ1 100 35 DC 3.1875
DZ1 34 35 DX
VZ2 36 200 DC 3.1875
DZ2 36 34 DX
*
* Z INPUT STAGE COMMON-MODE REJECTION AND ZERO 225 kHz
*
ECMZ 37 300 33 300 316.23
RCMZ1 37 38 1E6
CCMZ 37 38 707.56E-15
RCMZ2 38 300 1
*
* DENOMINATOR CONTROL & INTERNAL REFERENCE
*
QU1 100 49 50 QNU
RU1 50 51 28E3
*
VU 100 52
QU2 52 0 53 QNU
RU2 53 54 0.001
IU 53 200 DC 10E-6
FU1 300 55 VU 1.01
RU3 55 300 1E6
*
VR1 57 200 DC 8
QR 59 57 58 QPU
RR 57 58 1E5
VR2 59 200
FU4 300 56 VR2 1
RU4 56 300 28E3
*
EU 60 300 POLY(3) 50 51 55 300 56 300 (0,1.0101,1,1.0101)
RU5 60 300 1E6
*
* 250 MHz MULTIPLIER CORE
*
EXY 46 300 POLY(2) 14 300 24 300 (0,0,0,0,1)
RXY 46 300 1E6
GXY 300 47 46 300 1
GU 47 300 POLY(2) 60 300 47 300 (0,0,0,0,1)
RU 47 300 1E12
CU 47 300 6.65E-9
EW 48 300 POLY(2) 47 300 34 300 (0,1,-1)
RW 48 300 1E6
*
* OUTPUT AMP BUFFER
*
GW 64 300 48 300 1
QW1 100 0 61 QNW
QW2 200 0 62 QPW
QW3 63 62 64 QNW
QW4 65 61 64 QPW
RW1 100 63 1
RW2 65 200 1
IW1 100 62 DC 100E-6
IW2 61 200 DC 100E-6
VW1 100 66 DC 10
DW1 66 63 DX
VW2 67 200 DC 10
DW2 65 67 DX
*
* OUTPUT AMP GAIN STAGE
*
GW1 300 68 100 63 1
GW2 68 300 65 200 1
RW3 68 300 1.38E3
CW1 68 300 19E-9
VW3 100 69 DC 3.8
DW3 68 69 DX
VW4 70 200 DC 3.8
DW4 70 68 DX
*
* TRANSIENT SUPPLY CURRENT COMPENSATION
*
DCC1 80 100 DX
GCC 0 80 48 300 1
DCC2 0 80 DX
DEE1 81 0 DX
GEE 81 0 300 48 1
DEE2 200 81 DX
*
* POLE AT 17.5 MHz
*
GW3 300 71 68 300 1E-6
RW4 71 300 1E6
CW2 71 300 9.0946E-15
*
IDC 100 200 DC 7.0125E-3
RDC1 100 78 3.2E3
RDC2 78 200 3.2E3
DO1 100 72 DX
GO1 72 200 76 71 25E-3
DO2 200 72 DY
DO3 100 73 DX
GO2 73 200 71 76 25E-3
DO4 200 73 DY
VSC1 74 76 DC -0.2
DSC1 71 74 DX
VSC2 76 75 DC -0.2
DSC2 75 71 DX
GO3 76 100 100 71 25E-3
GO4 200 76 71 200 25E-3
RO1 100 76 40
RO2 76 200 40
LO 76 77 100E-9
*
* MODELS USED
*
.MODEL QNU NPN (BF=100 IS=1E-16)
.MODEL QPU PNP (BF=100 IS=1E-16)
.MODEL QNW NPN (BF=1E9 IS=1E-15)
.MODEL QPW PNP (BF=1E9 IS=1E-15)
.MODEL DX D(IS=1E-15)
.MODEL DY D(IS=1E-15 BV=50)
.ENDS AD734A
* AD734B SPICE Macro-model 4/92, Rev. B
* AAG / PMI
*
* This version of the AD734 multiplier model simulates the worst case
* parameters of the 'B' grade.  The worst case parameters used
* correspond to those in the data sheet.
*
* Revision History:
* Removed input signal current compensation: GX1,GY1,GZ1
* Added Isy vs. Vsy
*
* Copyright 1992 by Analog Devices, Inc.
*
* Refer to "README.DOC" file for License Statement.  Use of this model
* indicates your acceptance with the terms and provisions in the License Statement.
*
* Node assignments
*              X1
*              |  X2
*              |  |  UO
*              |  |  |  U1
*              |  |  |  |  U2
*              |  |  |  |  |  Y1
*              |  |  |  |  |  |  Y2
*              |  |  |  |  |  |  |  VN
*              |  |  |  |  |  |  |  |   ER
*              |  |  |  |  |  |  |  |   |  Z2
*              |  |  |  |  |  |  |  |   |  |  Z1
*              |  |  |  |  |  |  |  |   |  |  |  W
*              |  |  |  |  |  |  |  |   |  |  |  |  DD
*              |  |  |  |  |  |  |  |   |  |  |  |  |  VP
*              |  |  |  |  |  |  |  |   |  |  |  |  |  |
.SUBCKT AD734B 10 11 49 50 51 20 21 200 58 31 30 77 54 100
*
EREF 300 0 POLY(2) 100 0 200 0 (0,0.5,0.5)
*
* X INPUT STAGE & POLE AT 40 MHz
*
CINX 10 11 2E-12
IBX1 10 0 DC 200E-9
IBX2 11 0 DC 200E-9
EOSX 12 10 POLY(1) 18 300 5E-3 1
RX1 12 13 25E3
RX2 13 11 25E3
*
GX1 300 14 12 11 1E-6
RX3 14 300 9.9875E5
CX1 14 300 3.9839E-15
VX1 100 15 DC 3.1875
DX1 14 15 DX
VX2 16 200 DC 3.1875
DX2 16 14 DX
*
* X INPUT STAGE COMMON-MODE REJECTION AND ZERO 225 kHz
*
ECMX 17 300 13 300 316.23
RCMX1 17 18 1E6
CCMX 17 18 707.56E-15
RCMX2 18 300 1
*
* Y INPUT STAGE & POLE AT 40 MHz
*
CINY 20 21 2E-12
IBY1 20 0 DC 200E-9
IBY2 21 0 DC 200E-9
EOSY 22 20 POLY(1) 28 300 10E-3 1
RY1 22 23 25E3
RY2 23 21 25E3
*
GY1 300 24 22 21 1E-6
RY3 24 300 9.9875E5
CY1 24 300 3.9839E-15
VY1 100 25 DC 3.1875
DY1 24 25 DX
VY2 26 200 DC 3.1875
DY2 26 24 DX
*
* Y INPUT STAGE COMMON-MODE REJECTION AND ZERO 450 kHz
*
ECMY 27 300 23 300 316.23
RCMY1 27 28 1E6
CCMY 27 28 353.79E-15
RCMY2 28 300 1
*
* Z INPUT STAGE & POLE AT 40 MHz
*
CINZ 30 31 2E-12
IBZ1 30 0 DC 200E-9
IBZ2 31 0 DC 200E-9
EOSZ 32 30 POLY(1) 38 300 10E-3 1
RZ1 32 33 25E3
RZ2 33 31 25E3
*
GZ1 300 34 32 31 1E-6
RZ3 34 300 1E6
CZ1 34 300 3.9789E-15
VZ1 100 35 DC 3.1875
DZ1 34 35 DX
VZ2 36 200 DC 3.1875
DZ2 36 34 DX
*
* Z INPUT STAGE COMMON-MODE REJECTION AND ZERO 225 kHz
*
ECMZ 37 300 33 300 316.23
RCMZ1 37 38 1E6
CCMZ 37 38 707.56E-15
RCMZ2 38 300 1
*
* DENOMINATOR CONTROL & INTERNAL REFERENCE
*
QU1 100 49 50 QNU
RU1 50 51 28E3
*
VU 100 52
QU2 52 0 53 QNU
RU2 53 54 0.001
IU 53 200 DC 10E-6
FU1 300 55 VU 1.01
RU3 55 300 1E6
*
VR1 57 200 DC 8
QR 59 57 58 QPU
RR 57 58 1E5
VR2 59 200
FU4 300 56 VR2 1
RU4 56 300 28E3
*
EU 60 300 POLY(3) 50 51 55 300 56 300 (0,1.0101,1,1.0101)
RU5 60 300 1E6
*
* 250 MHz MULTIPLIER CORE
*
EXY 46 300 POLY(2) 14 300 24 300 (0,0,0,0,1)
RXY 46 300 1E6
GXY 300 47 46 300 1
GU 47 300 POLY(2) 60 300 47 300 (0,0,0,0,1)
RU 47 300 1E12
CU 47 300 6.65E-9
EW 48 300 POLY(2) 47 300 34 300 (0,1,-1)
RW 48 300 1E6
*
* OUTPUT AMP BUFFER
*
GW 64 300 48 300 1
QW1 100 0 61 QNW
QW2 200 0 62 QPW
QW3 63 62 64 QNW
QW4 65 61 64 QPW
RW1 100 63 1
RW2 65 200 1
IW1 100 62 DC 100E-6
IW2 61 200 DC 100E-6
VW1 100 66 DC 10
DW1 66 63 DX
VW2 67 200 DC 10
DW2 65 67 DX
*
* OUTPUT AMP GAIN STAGE
*
GW1 300 68 100 63 1
GW2 68 300 65 200 1
RW3 68 300 1.38E3
CW1 68 300 19E-9
VW3 100 69 DC 3.8
DW3 68 69 DX
VW4 70 200 DC 3.8
DW4 70 68 DX
*
* TRANSIENT SUPPLY CURRENT COMPENSATION
*
DCC1 80 100 DX
GCC 0 80 48 300 1
DCC2 0 80 DX
DEE1 81 0 DX
GEE 81 0 300 48 1
DEE2 200 81 DX
*
* POLE AT 17.5 MHz
*
GW3 300 71 68 300 1E-6
RW4 71 300 1E6
CW2 71 300 9.0946E-15
*
IDC 100 200 DC 7.0125E-3
RDC1 100 78 3.2E3
RDC2 78 200 3.2E3
DO1 100 72 DX
GO1 72 200 76 71 25E-3
DO2 200 72 DY
DO3 100 73 DX
GO2 73 200 71 76 25E-3
DO4 200 73 DY
VSC1 74 76 DC -0.2
DSC1 71 74 DX
VSC2 76 75 DC -0.2
DSC2 75 71 DX
GO3 76 100 100 71 25E-3
GO4 200 76 71 200 25E-3
RO1 100 76 40
RO2 76 200 40
LO 76 77 100E-9
*
* MODELS USED
*
.MODEL QNU NPN (BF=100 IS=1E-16)
.MODEL QPU PNP (BF=100 IS=1E-16)
.MODEL QNW NPN (BF=1E9 IS=1E-15)
.MODEL QPW PNP (BF=1E9 IS=1E-15)
.MODEL DX D(IS=1E-15)
.MODEL DY D(IS=1E-15 BV=50)
.ENDS AD734B
* AD734S SPICE Macro-model 4/92, Rev. B
* AAG / PMI
*
* This version of the AD734 multiplier model simulates the worst case
* parameters of the 'S' grade.  The worst case parameters used
* correspond to those in the data sheet.
*
* Revision History:
* Removed input signal current compensation: GX1,GY1,GZ1
* Added Isy vs. Vsy
*
* Copyright 1992 by Analog Devices, Inc.
*
* Refer to "README.DOC" file for License Statement.  Use of this model
* indicates your acceptance with the terms and provisions in the License Statement.
*
* Node assignments
*              X1
*              |  X2
*              |  |  UO
*              |  |  |  U1
*              |  |  |  |  U2
*              |  |  |  |  |  Y1
*              |  |  |  |  |  |  Y2
*              |  |  |  |  |  |  |  VN
*              |  |  |  |  |  |  |  |   ER
*              |  |  |  |  |  |  |  |   |  Z2
*              |  |  |  |  |  |  |  |   |  |  Z1
*              |  |  |  |  |  |  |  |   |  |  |  W
*              |  |  |  |  |  |  |  |   |  |  |  |  DD
*              |  |  |  |  |  |  |  |   |  |  |  |  |  VP
*              |  |  |  |  |  |  |  |   |  |  |  |  |  |
.SUBCKT AD734S 10 11 49 50 51 20 21 200 58 31 30 77 54 100
*
EREF 300 0 POLY(2) 100 0 200 0 (0,0.5,0.5)
*
* X INPUT STAGE & POLE AT 40 MHz
*
CINX 10 11 2E-12
IBX1 10 0 DC 300E-9
IBX2 11 0 DC 300E-9
EOSX 12 10 POLY(1) 18 300 15E-3 1
RX1 12 13 25E3
RX2 13 11 25E3
*
GX1 300 14 12 11 1E-6
RX3 14 300 9.98E5
CX1 14 300 3.9868E-15
VX1 100 15 DC 3.1875
DX1 14 15 DX
VX2 16 200 DC 3.1875
DX2 16 14 DX
*
* X INPUT STAGE COMMON-MODE REJECTION AND ZERO 225 kHz
*
ECMX 17 300 13 300 316.23
RCMX1 17 18 1E6
CCMX 17 18 707.56E-15
RCMX2 18 300 1
*
* Y INPUT STAGE & POLE AT 40 MHz
*
CINY 20 21 2E-12
IBY1 20 0 DC 300E-9
IBY2 21 0 DC 300E-9
EOSY 22 20 POLY(1) 28 300 10E-3 1
RY1 22 23 25E3
RY2 23 21 25E3
*
GY1 300 24 22 21 1E-6
RY3 24 300 9.98E5
CY1 24 300 3.9868E-15
VY1 100 25 DC 3.1875
DY1 24 25 DX
VY2 26 200 DC 3.1875
DY2 26 24 DX
*
* Y INPUT STAGE COMMON-MODE REJECTION AND ZERO 450 kHz
*
ECMY 27 300 23 300 316.23
RCMY1 27 28 1E6
CCMY 27 28 353.79E-15
RCMY2 28 300 1
*
* Z INPUT STAGE & POLE AT 40 MHz
*
CINZ 30 31 2E-12
IBZ1 30 0 DC 300E-9
IBZ2 31 0 DC 300E-9
EOSZ 32 30 POLY(1) 38 300 20E-3 1
RZ1 32 33 25E3
RZ2 33 31 25E3
*
GZ1 300 34 32 31 1E-6
RZ3 34 300 1E6
CZ1 34 300 3.9789E-15
VZ1 100 35 DC 3.1875
DZ1 34 35 DX
VZ2 36 200 DC 3.1875
DZ2 36 34 DX
*
* Z INPUT STAGE COMMON-MODE REJECTION AND ZERO 225 kHz
*
ECMZ 37 300 33 300 316.23
RCMZ1 37 38 1E6
CCMZ 37 38 707.56E-15
RCMZ2 38 300 1
*
* DENOMINATOR CONTROL & INTERNAL REFERENCE
*
QU1 100 49 50 QNU
RU1 50 51 28E3
*
VU 100 52
QU2 52 0 53 QNU
RU2 53 54 0.001
IU 53 200 DC 10E-6
FU1 300 55 VU 1.01
RU3 55 300 1E6
*
VR1 57 200 DC 8
QR 59 57 58 QPU
RR 57 58 1E5
VR2 59 200
FU4 300 56 VR2 1
RU4 56 300 28E3
*
EU 60 300 POLY(3) 50 51 55 300 56 300 (0,1.0101,1,1.0101)
RU5 60 300 1E6
*
* 250 MHz MULTIPLIER CORE
*
EXY 46 300 POLY(2) 14 300 24 300 (0,0,0,0,1)
RXY 46 300 1E6
GXY 300 47 46 300 1
GU 47 300 POLY(2) 60 300 47 300 (0,0,0,0,1)
RU 47 300 1E12
CU 47 300 6.65E-9
EW 48 300 POLY(2) 47 300 34 300 (0,1,-1)
RW 48 300 1E6
*
* OUTPUT AMP BUFFER
*
GW 64 300 48 300 1
QW1 100 0 61 QNW
QW2 200 0 62 QPW
QW3 63 62 64 QNW
QW4 65 61 64 QPW
RW1 100 63 1
RW2 65 200 1
IW1 100 62 DC 100E-6
IW2 61 200 DC 100E-6
VW1 100 66 DC 10
DW1 66 63 DX
VW2 67 200 DC 10
DW2 65 67 DX
*
* OUTPUT AMP GAIN STAGE
*
GW1 300 68 100 63 1
GW2 68 300 65 200 1
RW3 68 300 1.38E3
CW1 68 300 19E-9
VW3 100 69 DC 3.8
DW3 68 69 DX
VW4 70 200 DC 3.8
DW4 70 68 DX
*
* TRANSIENT SUPPLY CURRENT COMPENSATION
*
DCC1 80 100 DX
GCC 0 80 48 300 1
DCC2 0 80 DX
DEE1 81 0 DX
GEE 81 0 300 48 1
DEE2 200 81 DX
*
* POLE AT 17.5 MHz
*
GW3 300 71 68 300 1E-6
RW4 71 300 1E6
CW2 71 300 9.0946E-15
*
IDC 100 200 DC 7.0125E-3
RDC1 100 78 3.2E3
RDC2 78 200 3.2E3
DO1 100 72 DX
GO1 72 200 76 71 25E-3
DO2 200 72 DY
DO3 100 73 DX
GO2 73 200 71 76 25E-3
DO4 200 73 DY
VSC1 74 76 DC -0.2
DSC1 71 74 DX
VSC2 76 75 DC -0.2
DSC2 75 71 DX
GO3 76 100 100 71 25E-3
GO4 200 76 71 200 25E-3
RO1 100 76 40
RO2 76 200 40
LO 76 77 100E-9
*
* MODELS USED
*
.MODEL QNU NPN (BF=100 IS=1E-16)
.MODEL QPU PNP (BF=100 IS=1E-16)
.MODEL QNW NPN (BF=1E9 IS=1E-15)
.MODEL QPW PNP (BF=1E9 IS=1E-15)
.MODEL DX D(IS=1E-15)
.MODEL DY D(IS=1E-15 BV=50)
.ENDS AD734S
 ADG406 19 20 21 22 23 24 25 26 11 10 9 8 7 6 5 4 14 15 16 17 18 28 1 12 27
*
* DEMUX SWITCHES (S1-16 ---> D)
*
*     First Section is for control line A0
*          All nodes in this section are in the 30's unless
*          they are I/O nodes
*
E_A0_2    200 12  17 12    1
E_A0_1     30 40 201 40   -1
R_A0_1    200 201         1000
C_A0_X2   201 12          100E-12

V_AX_1     40  12          1.6

S_A0_16     4 31 201 12   Sdemux
S_A0_15     5 31 30  12   Sdemux                
S_A0_14     6 32 201 12   Sdemux
S_A0_13     7 32 30  12   Sdemux
S_A0_12     8 33 201 12   Sdemux
S_A0_11     9 33 30  12   Sdemux
S_A0_10    10 34 201 12   Sdemux
S_A0_9     11 34 30  12   Sdemux
S_A0_8     26 35 201 12   Sdemux
S_A0_7     25 35 30  12   Sdemux                
S_A0_6     24 36 201 12   Sdemux
S_A0_5     23 36 30  12   Sdemux
S_A0_4     22 37 201 12   Sdemux
S_A0_3     21 37 30  12   Sdemux
S_A0_2     20 38 201 12   Sdemux
S_A0_1     19 38 30  12   Sdemux

C_A0_X1     17 12          4E-12
C_A0_D      17 39          4E-12

*          Input capacitances

C_A0_1     19  12          8E-12
C_A0_2     20  12         8E-12
C_A0_3     21  12         8E-12
C_A0_4     22  12         8E-12
C_A0_5     23  12         8E-12
C_A0_6     24  12         8E-12
C_A0_7     25  12         8E-12
C_A0_8     26  12         8E-12
C_A0_9     11  12         8E-12
C_A0_10    10  12         8E-12
C_A0_11     9  12         8E-12
C_A0_12     8  12         8E-12
C_A0_13     7  12         8E-12
C_A0_14     6  12         8E-12
C_A0_15     5  12         8E-12
C_A0_16     4  12         8E-12

C_D_1      28  12         80E-12

*
*       Leakage Current (SX and D ON only) 
*

R_ON_S1    19 500    1.5E12
R_ON_S2    20 500    1.5E12
R_ON_S3    21 500    1.5E12
R_ON_S4    22 500    1.5E12
R_ON_S5    23 500    1.5E12
R_ON_S6    24 500    1.5E12
R_ON_S7    25 500    1.5E12
R_ON_S8    26 500    1.5E12
R_ON_S9    11 500    1.5E12
R_ON_S10   10 500    1.5E12
R_ON_S11    9 500    1.5E12
R_ON_S12    8 500    1.5E12
R_ON_S13    7 500    1.5E12
R_ON_S14    6 500    1.5E12
R_ON_S15    5 500    1.5E12
R_ON_S16    4 500    1.5E12
SLEAK_ON_D 28 500    28 500  SLEAK
ILEAK_ON_D 28 500   -10E-12               
*       Leakage Current (SX OFF only)
*
*       Leakage Current (D OFF only)
*

S_OFF_D     28  58 80 12          Sdemux
R_OFF_D     58  12                1E12 
G_OFF_D     28  12 58 12          0.75E-12

*C_OFF_D     58  12                0E-12   
*
*     Second Section is for control line A1
*

E_A1_2    170 12 16  12    1
E_A1_1     41 40 171 40   -1
R_A1_1    170 171         1000
C_A1_X2   171 12          100E-12

S_A1_1     31 42 171 12     Sdemux
S_A1_2     32 42 41  12     Sdemux
S_A1_3     33 43 171 12    Sdemux
S_A1_4     34 43 41  12    Sdemux
S_A1_5     35 44 171 12    Sdemux
S_A1_6     36 44 41  12    Sdemux
S_A1_7     37 45 171 12    Sdemux
S_A1_8     38 45 41  12    Sdemux

C_A1_X     16 12           4E-12
C_A1_D     16 39           4E-12

*
*     Third Section is for control line A2
*

E_A2_2    160 12 15  12    1
E_A2_1     46 40 161 40   -1
R_A2_1    160 161         1000
C_A2_X2   161  12          100E-12

S_A2_1     42 47 161 12     Sdemux
S_A2_2     43 47 46  12    Sdemux
S_A2_3     44 48 161 12    Sdemux
S_A2_4     45 48 46  12    Sdemux

C_A2_X     15 12           4E-12
C_A2_D     15 39           4E-12

*
*     Forth Section is for control line A3
*

E_A3_2    140  12  14 12   1
E_A3_1     49  40 141 40   -1
R_A3_1    140 141         1000
C_A3_X2   141  12          100E-12

S_A3_1     47 39 141 12     Sdemux
S_A3_2     48 39 49  12    Sdemux

C_A3_X     14 12           4E-12
C_A3_D     14 39           4E-12

*
*     Main Series Switch combination
*
*

V_1_A     419  12  15
V_1_B     420  12  -15
V_1_C     421  500 -0.5         ;sets pos main offset
V_1_D     422  27  2.5          ;sets neg main offset
R_1_C     39   0   1E13
S_1_A     425  39  420 73 SNCM
R_1_A    412 425  24            ;sets neg at max d
S_1_B      426  39  419 73 SPCM
R_1_B     73 426  30            ;sets pos at max d
S_1_C      73 412 611  12 SMAINP
S_1_D     412 411  12 612 SMAINN
B_1_E     611  12         V=  (10*V(73,421))/(0.5*V(1,500)+0.005) 
B_1_F     612  12         V=  (10*V(73,500))/(PWR(V(500,422),1)+0.005) 
S_1_G     411  39   1  27 SBASE

I_XX_1    99 0 0       ;add a 'do-nothing' component
I_XX_3   421 0 0      ;  at nodes 99, 421
I_XX_3   422 0 0      ;    and 422 to keep SPICE  happy

*
*       Voltage Clamp 
*

D_1_POS     39  1    DClamp
G_1_POS     39  1  39  1  -1E-12
D_2_NEG     27  39   DClamp
G_2_NEG     27  39 27  39 1E-12

*     Enable Switch section
*

S_EN_1     73 28 18  12     Sdemux
C_EN_1     18 28           4.2E-12  ; SETS CHARGE INJECTION 

*     Invert Enable Switch section

E_EN0_1     18  81 80 12    -2
V_EN0_1     82  12          2.5
R_EN0_1     82  81         1
R_EN0_2     80  12          1E12

*
*     Power Supply Current Correction
*
I_PS_1      1  12           80E-6
I_PS_2     12  27           0.0001E-6
E_PS_1     99  12  1  12    1
E_PS_2    500  27  1  27    .5

*
*       Crosstalk 
*

RXT_1     19 52           1E13
RXT_2     20 52           1E13
RXT_3     21 52           1E13
RXT_4     22 52           1E13
RXT_5     23 52           1E13
RXT_6     24 52           1E13
RXT_7     25 52           1E13
RXT_8     26 52           1E13
RXT_9     11 52           1E13
RXT_10    10 52           1E13
RXT_11     9 52           1E13
RXT_12     8 52           1E13
RXT_13     7 52           1E13
RXT_14     6 52           1E13
RXT_15     5 52           1E13
RXT_16     4 52           1E13

CXT_1     19 52           1E-12
CXT_2     20 52           1E-12
CXT_3     21 52           1E-12
CXT_4     22 52           1E-12
CXT_5     23 52           1E-12
CXT_6     24 52           1E-12
CXT_7     25 52           1E-12
CXT_8     26 52           1E-12
CXT_9     11 52           1E-12
CXT_10    10 52           1E-12
CXT_11     9 52           1E-12
CXT_12     8 52           1E-12
CXT_13     7 52           1E-12
CXT_14     6 52           1E-12
CXT_15     5 52           1E-12
CXT_16     4 52           1E-12

*
*       OFF Isolation
*
COI_1     19 28           1E-13
COI_2     20 28           1E-13
COI_3     21 28           1E-13
COI_4     22 28           1E-13
COI_5     23 28           1E-13
COI_6     24 28           1E-13
COI_7     25 28           1E-13
COI_8     26 28           1E-13
COI_9     11 28           1E-13
COI_10    10 28           1E-13
COI_11     9 28           1E-13
COI_12     8 28           1E-13
COI_13     7 28           1E-13
COI_14     6 28           1E-13
COI_15     5 28           1E-13
COI_16     4 28           1E-13
ROI_1     19 1901         1.6E9
COI_1A    1901 28         10E-12
ROI_2     20 1902         1.6E9
COI_2A    1902 28         10E-12
ROI_3     21 1903         1.6E9
COI_3A    1903 28         10E-12
ROI_4     22 1904         1.6E9
COI_4A    1904 28         10E-12
ROI_5     23 1905         1.6E9
COI_5A    1905 28         10E-12
ROI_6     24 1906         1.6E9
COI_6A    1906 28         10E-12
ROI_7     25 1907         1.6E9
COI_7A    1907 28         10E-12
ROI_8     26 1908         1.6E9
COI_8A    1908 28         10E-12
ROI_9     11 1909         1.6E9
COI_9A    1909 28         10E-12
ROI_10     10 1910         1.6E9
COI_10A    1910 28         10E-12
ROI_11     9 1911         1.6E9
COI_11A    1911 28         10E-12
ROI_12     8 1912         1.6E9
COI_12A    1912 28         10E-12
ROI_13     7 1913         1.6E9
COI_13A    1913 28         10E-12
ROI_14     6 1914         1.6E9
COI_14A    1914 28         10E-12
ROI_15     5 1915         1.6E9
COI_15A    1915 28         10E-12
ROI_16     4 1916         1.6E9
COI_16A    1916 28         10E-12
*
* MODELS USED
*
.MODEL SNCM  SW (RON=1 ROFF=500001 VON=9 VOFF=-44)
.MODEL SPCM  SW (RON=450000 ROFF=1 VON=41 VOFF=-6.5)
.MODEL SBASE SW (RON=11 ROFF=3500 VON=28 VOFF=-10)
.MODEL SMAINP SW (RON=650001 ROFF=19 VON=32 VOFF=0)
.MODEL SMAINN SW (RON=700001 ROFF=7 VON=28.5 VOFF=0)
.MODEL Sdemux SW (RON=1 ROFF=1E12 VON=2.0 VOFF=1.4)
.MODEL DClamp D(IS=1E-15 IBV=1E-13)
.MODEL SLEAK SW (RON=750E9 ROFF=150E9 VON=-15 VOFF=15)
.ENDS ADG406
* ADG408 SPICE Macro-model                10/95, Rev. A
*                                           JOM / ADSC
*
* Revision History: NONE
*
*	NOTE: This model was setup with typical leakage currents
*		at +25C for ADG408 
*
* Copyright 1995 by Analog Devices, Inc.
*
* Refer to "README.DOC" file for License Statement.  Use of this 
* model indicates your acceptance with the terms and provisions 
* in the License Statement.
*
* Node assignments
* 4 - S1, 5 - S2, 6 - S3, 7 - S4, 12 - S5, 11 - S6, 10 - S7
* 9 - S8, 15 - A2, 16 - A1, 1 - A0, 2 - EN
* 8 - D, 13 - VDD, 14 - GND, 3 - VSS
*                    
.SUBCKT ADG408 4 5 6 7 12 11 10 9 15 16 1 2 8 13 14 3
*
* DEMUX SWITCHES (S1-8 ---> D)
*
*     First Section is for control line A0
*

E_A0_2	  200 14   1 14    1
E_A0_1     30 40 201 40   -1
R_A0_1    200 201         1000
C_A0_X2   201 14          100E-12

V_AX_1     40  14          1.6

S_A0_8      9 34 201 14   Sdemux
S_A0_7     10 34 30  14   Sdemux		
S_A0_6     11 33 201 14   Sdemux
S_A0_5     12 33 30  14   Sdemux
S_A0_4      7 32 201 14   Sdemux
S_A0_3      6 32 30  14   Sdemux
S_A0_2      5 31 201 14   Sdemux
S_A0_1      4 31 30  14   Sdemux

C_A0_X1     1 14          4E-12
C_A0_D      1 39          4E-12

*          Input capacitances

C_A0_1      4  14         8E-12
C_A0_2      5  14         8E-12
C_A0_3      6  14	  8E-12
C_A0_4      7  14         8E-12
C_A0_5     12  14         8E-12
C_A0_6     11  14         8E-12
C_A0_7     10  14         8E-12
C_A0_8      9  14         8E-12

C_D_1       8  14         80E-12

*
*	Leakage Current (SX and D ON only) 
*

R_ON_S1     4 500    1.5E12
R_ON_S2	    5 500    1.5E12
R_ON_S3     6 500    1.5E12
R_ON_S4     7 500    1.5E12
R_ON_S5    12 500    1.5E12
R_ON_S6    11 500    1.5E12
R_ON_S7    10 500    1.5E12
R_ON_S8     9 500    1.5E12

SLEAK_ON_D  8 500    8 500  SLEAK
ILEAK_ON_D  8 500    10E-12 		  
*
*	Leakage Current (SX OFF only)
*
*	Leakage Current (D OFF only)
*

S_OFF_D     8  58 80 14	  Sdemux
R_OFF_D    58  14         1E12 
G_OFF_D     8  14 58 14   0.75E-12

*C_OFF_D     58  14                0E-12   
*
*     Second Section is for control line A1
*

E_A1_2	  170 14 16  14    1
E_A1_1     41 40 171 40   -1
R_A1_1    170 171         1000
C_A1_X2   171 14          100E-12

S_A1_4     34 42 171 14     Sdemux
S_A1_3     33 42 41  14     Sdemux
S_A1_2     32 43 171 14    Sdemux
S_A1_1     31 43 41  14    Sdemux

C_A1_X     16 14           4E-12
C_A1_D     16 39           4E-12

*
*     Third Section is for control line A2
*

E_A2_2	  160  14  15  14  1
E_A2_1     46  40 161  40  -1
R_A2_1    160 161          1000
C_A2_X2   161  14          100E-12

S_A2_2     42 39 161 14    Sdemux
S_A2_1     43 39  46 14    Sdemux

C_A2_X     15 14           4E-12
C_A2_D     15 39           4E-12

*
*     Main Series Switch combination
*
*

V_1_A     419   14  15
V_1_B     420   14  -15
V_1_C     421   13  -1        ;sets pos main offset
V_1_D     422    3  2		;sets neg main offset



R_1_C      39   0         1E13
S_1_A     425  39 420  73 SNCM
R_1_A     412 425         29		;sets neg at max d
S_1_B     426  39 419  73 SPCM
R_1_B      73 426         50            ;sets pos at max d
S_1_C      73 412 611  14 SMAINP
S_1_D     412 411  14 612 SMAINN
B_1_E     611  14         V=  (10*V(73,500))/(V(421,500)+0.005) 
B_1_F     612  14         V=  (10*V(73,500))/(V(500,422)+0.005) 
S_1_G     411  39  99   3 SBASE

*
*	Voltage Clamp 
*

D_1_POS     39  13          DClamp  .001
G_1_POS     39  13  39  13  -1E-12
D_2_NEG      3  39          DClamp  .001
G_2_NEG      3  39   3  39  1E-12

*
*     Enable Switch section
*

S_EN_1     73  8  2  14    Sdemux
C_EN_1      2  8           4.2E-12  ; SETS CHARGE INJECTION 

*     Invert Enable Switch section

E_EN0_1     80  14 2 82    -2
V_EN0_1	    82  14          2.5

*
*     Power Supply Current Correction
*

I_PS_1     13  14           80E-6
I_PS_2     14   3           0.0001E-6
E_PS_1     99  14  13  14   1
E_PS_2    500   3  13   3   .5

*
*	Crosstalk 
*

RXT_1      4 52           1E13
RXT_2      5 52           1E13
RXT_3      6 52           1E13
RXT_4      7 52           1E13
RXT_5     12 52           1E13
RXT_6     11 52           1E13
RXT_7     10 52           1E13
RXT_8      9 52           1E13

CXT_1      4 52           1E-12