
.MODEL MPS3904 NPN (
+   IS =  1.949e-15
+   BF =  782.4
+   BR =  3.143
+   RB =  10
+   RE =  0
+   RC =  4
+   CJS =  0
+   CJE =  6.726e-12
+   CJC =  3.898e-12
+   VJE =  0.75
+   VJC =  0.75
+   TF =  6.377e-10
+   TR =  1.197e-09
+   MJE =  0.3467
+   MJC =  0.2858
+   VA =  1e+30
+   ISE =  1.949e-15
+   IKF =  1e+30
+   NE =  1.214
+   NF =  1
+   NR =  1
+   VAR =  1e+30
+   IKR =  1e+30
+   ISC =  0
+   NC =  2
+   IRB =  1e+30
+   RBM =  0
+   XTF =  14
+   VTF =  1e+30
+   ITF =  0.15
+   PTF =  0
+   XCJC =  1
+   VJS =  0.75
+   MJS =  0
+   XTB =  1.5
+   EG =  1.11
+   XTI =  3
+   KF =  0
+   AF =  1
+   FC =  0.5
+   TNOM =  27
)

.MODEL Q2N2222A NPN (
+   IS =  1.434e-14
+   BF =  255.9
+   BR =  6.092
+   RB =  10
+   RE =  0
+   RC =  1
+   CJS =  0
+   CJE =  2.201e-11
+   CJC =  7.306e-12
+   VJE =  0.75
+   VJC =  0.75
+   TF =  4.111e-10
+   TR =  4.691e-08
+   MJE =  0.377
+   MJC =  0.3416
+   VA =  1e+30
+   ISE =  1.434e-14
+   IKF =  1e+30
+   NE =  1.307
+   NF =  1
+   NR =  1
+   VAR =  1e+30
+   IKR =  1e+30
+   ISC =  0
+   NC =  2
+   IRB =  1e+30
+   RBM =  0
+   XTF =  3
+   VTF =  1e+30
+   ITF =  0.6
+   PTF =  0
+   XCJC =  1
+   VJS =  0.75
+   MJS =  0
+   XTB =  1.5
+   EG =  1.11
+   XTI =  3
+   KF =  0
+   AF =  1
+   FC =  0.5
+   TNOM =  27
)
