***************************************************************
* SIEMENS Small Signal Semiconductors                         *
* SPICE Library Version 4.00                 11.09.1996       *
*                                                             *
* Extracted on behalf of SIEMENS Small Signal Semiconductors  *
* by:                                                         *
* Institut fuer Mobil- und Satellitenfunktechnik (IMST)       *
* (C) 1996 SIEMENS AG                                         *
***************************************************************
.MODEL BFS17P NPN(
+ IS = 4.7055e-15     BF = 101.3        NF = 0.81505
+ VAF = 45            IKF = 0.054272    ISE = 1.536e-14
+ NE = 1.3727         BR = 20.436       NR = 1.4775
+ VAR = 4.6607        IKR = 0.015746    ISC = 1.2944e-15
+ NC = 0.86254        RB = 11.511       IRB = 4.2443e-05
+ RBM = 7.5995        RE = 0.95265      RC = 10
+ CJE = 2.1553e-14    VJE = 0.81319     MJE = 0.52671
+ TF = 3.7049e-11     XTF = 0.24396     VTF = 0.29226
+ ITF = 0.0031948     PTF = 0           CJC = 8.1666e-13
+ VJC = 0.79678       MJC = 0.3138      XCJC = 0.24494
+ TR = 1.2601e-09     CJS= 0            VJS = 0.75
+ MJS = 0             XTB = 0           EG = 1.11
+ XTI = 3             FC = 0.57696)
***************************************************************
.MODEL BFS17S NPN(
+ IS = 4.7055e-15     BF = 101.3        NF = 0.81505
+ VAF = 45            IKF = 0.054272    ISE = 1.536e-14
+ NE = 1.3727         BR = 20.436       NR = 1.4775
+ VAR = 4.6607        IKR = 0.015746    ISC = 1.2944e-15
+ NC = 0.86254        RB = 11.511       IRB = 4.2443e-05
+ RBM = 7.5995        RE = 0.95265      RC = 10
+ CJE = 2.1553e-14    VJE = 0.81319     MJE = 0.52671
+ TF = 3.7049e-11     XTF = 0.24396     VTF = 0.29226
+ ITF = 0.0031948     PTF = 0           CJC = 8.1666e-13
+ VJC = 0.79678       MJC = 0.3138      XCJC = 0.24494
+ TR = 1.2601e-09     CJS= 0            VJS = 0.75
+ MJS = 0             XTB = 0           EG = 1.11
+ XTI = 3             FC = 0.57696)
***************************************************************
.MODEL BFS17W NPN(
+ IS = 4.7055e-15     BF = 101.3        NF = 0.81505
+ VAF = 45            IKF = 0.054272    ISE = 1.536e-14
+ NE = 1.3727         BR = 20.436       NR = 1.4775
+ VAR = 4.6607        IKR = 0.015746    ISC = 1.2944e-15
+ NC = 0.86254        RB = 11.511       IRB = 4.2443e-05
+ RBM = 7.5995        RE = 0.95265      RC = 10
+ CJE = 2.1553e-14    VJE = 0.81319     MJE = 0.52671
+ TF = 3.7049e-11     XTF = 0.24396     VTF = 0.29226
+ ITF = 0.0031948     PTF = 0           CJC = 8.1666e-13
+ VJC = 0.79678       MJC = 0.3138      XCJC = 0.24494
+ TR = 1.2601e-09     CJS= 0            VJS = 0.75
+ MJS = 0             XTB = 0           EG = 1.11
+ XTI = 3             FC = 0.57696)
***************************************************************
.MODEL BFG135A NPN(
+ IS = 9.6952e-15     BF = 86.665       NF = 0.46449
+ VAF = 33.548        IKF = 1.9049      ISE = 3.7545e-15
+ NE = 0.74837        BR = 61.012       NR = 1.1471
+ VAR = 45.693        IKR = 0.019155    ISC = 4.5491e-18
+ NC = 1.2809         RB = 0            IRB = 0.00020816
+ RBM = 1.0193        RE = 1.4768       RC = 0.075508
+ CJE = 3.2968e-14    VJE = 0.87721     MJE = 0.51738
+ TF = 4.2719e-11     XTF = 0.26853     VTF = 0.11783
+ ITF = 0.0047293     PTF = 0           CJC = 2.9998e-12
+ VJC = 1.0086        MJC = 0.39102     XCJC = 0.020778
+ TR = 1.3578e-10     CJS= 0            VJS = 0.75
+ MJS = 0             XTB = 0           EG = 1.11
+ XTI = 3             FC = 0.56371)
***************************************************************
.SUBCKT BFG235 1 2 3
*              C B E            TWO CHIPS IN PARALLEL
Q1  1 2 3  T236
Q1  1 2 3  T236
.MODEL T236 NPN(
+ IS = 9.6952e-15     BF = 86.665       NF = 0.46449
+ VAF = 33.548        IKF = 1.9049      ISE = 3.7545e-15
+ NE = 0.74837        BR = 61.012       NR = 1.1471
+ VAR = 45.693        IKR = 0.019155    ISC = 4.5491e-18
+ NC = 1.2809         RB = 0            IRB = 0.00020816
+ RBM = 1.0193        RE = 1.4768       RC = 0.075508
+ CJE = 3.2968e-14    VJE = 0.87721     MJE = 0.51738
+ TF = 4.2719e-11     XTF = 0.26853     VTF = 0.11783
+ ITF = 0.0047293     PTF = 0           CJC = 2.9998e-12
+ VJC = 1.0086        MJC = 0.39102     XCJC = 0.020778
+ TR = 1.3578e-10     CJS= 0            VJS = 0.75
+ MJS = 0             XTB = 0           EG = 1.11
+ XTI = 3             FC = 0.56371)
.ENDS
***************************************************************
.MODEL BFP136W NPN(
+ IS = 1.5813e-15     BF = 113.32       NF = 1.0653
+ VAF = 12.331        IKF = 1.4907      ISE = 4.637e-14
+ NE = 1.4254         BR = 86.718       NR = 1.8047
+ VAR = 31.901        IKR = 0.033605    ISC = 8.0864e-18
+ NC = 1.8821         RB = 0            IRB = 0.00083992
+ RBM = 1.0078        RE = 0.22081      RC = 0.01636
+ CJE = 3.3904e-14    VJE = 0.71518     MJE = 0.36824
+ TF = 2.0691e-11     XTF = 0.31338     VTF = 0.10174
+ ITF = 0.0045579     PTF = 0           CJC = 2.9774e-12
+ VJC = 1.1381        MJC = 0.31461     XCJC = 0.02899
+ TR = 1.0033e-09     CJS= 0            VJS = 0.75
+ MJS = 0             XTB = 0           EG = 1.11
+ XTI = 3             FC = 0.99886)
***************************************************************
.MODEL BFQ81 NPN(
+ IS = 1.703e-14      BF = 110          NF = 0.80846
+ VAF = 35            IKF = 0.22241     ISE = 5.8728e-15
+ NE = 1.0668         BR = 25.974       NR = 0.36321
+ VAR = 2.3785        IKR = 0.011566    ISC = 1.6977e-13
+ NC = 1.2237         RB = 5.7058       IRB = 0.00011894
+ RBM = 1.5489        RE = 1.1731       RC = 0.3715
+ CJE = 3.3977e-14    VJE = 0.4318      MJE = 1.7707
+ TF = 2.1842e-11     XTF = 0.26781     VTF = 0.48042
+ ITF = 0.014701      PTF = 0           CJC = 6.9381e-13
+ VJC = 0.26339       MJC = 0.24448     XCJC = 0.1254
+ TR = 1.2554e-09     CJS= 0            VJS = 0.75
+ MJS = 0             XTB = 0           EG = 1.11
+ XTI = 3             FC = 0.74346)
***************************************************************
.MODEL BFP81 NPN(
+ IS = 1.703e-14      BF = 110          NF = 0.80846
+ VAF = 35            IKF = 0.22241     ISE = 5.8728e-15
+ NE = 1.0668         BR = 25.974       NR = 0.36321
+ VAR = 2.3785        IKR = 0.011566    ISC = 1.6977e-13
+ NC = 1.2237         RB = 5.7058       IRB = 0.00011894
+ RBM = 1.5489        RE = 1.1731       RC = 0.3715
+ CJE = 3.3977e-14    VJE = 0.4318      MJE = 1.7707
+ TF = 2.1842e-11     XTF = 0.26781     VTF = 0.48042
+ ITF = 0.014701      PTF = 0           CJC = 6.9381e-13
+ VJC = 0.26339       MJC = 0.24448     XCJC = 0.1254
+ TR = 1.2554e-09     CJS= 0            VJS = 0.75
+ MJS = 0             XTB = 0           EG = 1.11
+ XTI = 3             FC = 0.74346)
***************************************************************
.MODEL BFR93AW NPN(
+ IS = 8.6752e-15     BF = 137.63       NF = 0.93633
+ VAF = 20.011        IKF = 0.33395     ISE = 2.6193e-12
+ NE = 1.5466         BR = 59           NR = 0.88761
+ VAR = 26.834        IKR = 0.015129    ISC = 7.0823e-16
+ NC = 1.95           RB = 7.2326       IRB = 4.3806e-05
+ RBM = 3.4649        RE = 1.0075       RC = 0.13193
+ CJE = 3.1538e-15    VJE = 0.70393     MJE = 0.5071
+ TF = 3.3388e-11     XTF = 0.28319     VTF = 0.17765
+ ITF = 0.0025184     PTF = 0           CJC = 1.0395e-12
+ VJC = 0.72744       MJC = 0.34565     XCJC = 0.21422
+ TR = 1.1061e-09     CJS= 0            VJS = 0.75
+ MJS = 0             XTB = 0           EG = 1.11
+ XTI = 3             FC = 0.75935)
**************************************************************
.MODEL BFR93A NPN(
+ IS = 8.6752e-15     BF = 137.63       NF = 0.93633
+ VAF = 20.011        IKF = 0.33395     ISE = 2.6193e-12
+ NE = 1.5466         BR = 59           NR = 0.88761
+ VAR = 26.834        IKR = 0.015129    ISC = 7.0823e-16
+ NC = 1.95           RB = 7.2326       IRB = 4.3806e-05
+ RBM = 3.4649        RE = 1.0075       RC = 0.13193
+ CJE = 3.1538e-15    VJE = 0.70393     MJE = 0.5071
+ TF = 3.3388e-11     XTF = 0.28319     VTF = 0.17765
+ ITF = 0.0025184     PTF = 0           CJC = 1.0395e-12
+ VJC = 0.72744       MJC = 0.34565     XCJC = 0.21422
+ TR = 1.1061e-09     CJS= 0            VJS = 0.75
+ MJS = 0             XTB = 0           EG = 1.11
+ XTI = 3             FC = 0.75935)
**************************************************************
.MODEL BFP93A NPN(
+ IS = 8.6752e-15     BF = 137.63       NF = 0.93633
+ VAF = 20.011        IKF = 0.33395     ISE = 2.6193e-12
+ NE = 1.5466         BR = 59           NR = 0.88761
+ VAR = 26.834        IKR = 0.015129    ISC = 7.0823e-16
+ NC = 1.95           RB = 7.2326       IRB = 4.3806e-05
+ RBM = 3.4649        RE = 1.0075       RC = 0.13193
+ CJE = 3.1538e-15    VJE = 0.70393     MJE = 0.5071
+ TF = 3.3388e-11     XTF = 0.28319     VTF = 0.17765
+ ITF = 0.0025184     PTF = 0           CJC = 1.0395e-12
+ VJC = 0.72744       MJC = 0.34565     XCJC = 0.21422
+ TR = 1.1061e-09     CJS= 0            VJS = 0.75
+ MJS = 0             XTB = 0           EG = 1.11
+ XTI = 3             FC = 0.75935)
**************************************************************
.MODEL BFR106 NPN(
+ IS = 1.8998e-15     BF = 132.75       NF = 0.89608
+ VAF = 15            IKF = 0.44125     ISE = 7.1424e-14
+ NE = 1.3235         BR = 11.407       NR = 0.91008
+ VAR = 4.1613        IKR = 0.010016    ISC = 2.0992e-15
+ NC = 1.4602         RB = 1.2652       IRB = 2.8135e-05
+ RBM = 1.0893        RE = 1.1351       RC = 0.27485
+ CJE = 5.0933e-15    VJE = 0.85909     MJE = 0.69062
+ TF = 3.5786e-11     XTF = 0.44444     VTF = 0.10681
+ ITF = 0.062059      PTF = 0           CJC = 2.3278e-12
+ VJC = 0.81533       MJC = 0.46849     XCJC = 0.14496
+ TR = 1.2466e-09     CJS= 0            VJS = 0.75
+ MJS = 0             XTB = 0           EG = 1.11
+ XTI = 3             FC = 0.92887)
***************************************************************
.MODEL BFG19S NPN(
+ IS = 1.8998e-15     BF = 132.75       NF = 0.89608
+ VAF = 15            IKF = 0.44125     ISE = 7.1424e-14
+ NE = 1.3235         BR = 11.407       NR = 0.91008
+ VAR = 4.1613        IKR = 0.010016    ISC = 2.0992e-15
+ NC = 1.4602         RB = 1.2652       IRB = 2.8135e-05
+ RBM = 1.0893        RE = 1.1351       RC = 0.27485
+ CJE = 5.0933e-15    VJE = 0.85909     MJE = 0.69062
+ TF = 3.5786e-11     XTF = 0.44444     VTF = 0.10681
+ ITF = 0.062059      PTF = 0           CJC = 2.3278e-12
+ VJC = 0.81533       MJC = 0.46849     XCJC = 0.14496
+ TR = 1.2466e-09     CJS= 0            VJS = 0.75
+ MJS = 0             XTB = 0           EG = 1.11
+ XTI = 3             FC = 0.92887)
***************************************************************
.MODEL BFR180W NPN(
+ IS = 1.8519e-16     BF = 94.687       NF = 1.0236
+ VAF = 26.867        IKF = 0.025252    ISE = 1.3093e-13
+ NE = 1.9818         BR = 20.325       NR = 0.93013
+ VAR = 3.2134        IKR = 0.012138    ISC = 6.1852e-15
+ NC = 1.6195         RB = 1.4255       IRB = 1e-05
+ RBM = 60            RE = 3.7045       RC = 0.56
+ CJE = 3.2473e-15    VJE = 1.1812      MJE = 0.41827
+ TF = 1.4866e-11     XTF = 0.3062      VTF = 0.22023
+ ITF = 0.0010202     PTF = 0           CJC = 1.8369e-13
+ VJC = 1.1812        MJC = 0.30423     XCJC = 0.08334
+ TR = 2.2648e-09     CJS= 0            VJS = 0.75
+ MJS = 0             XTB = 0           EG = 1.11
+ XTI = 3             FC = 0.87906)
***************************************************************
.MODEL BFP180W NPN(
+ IS = 1.8519e-16     BF = 94.687       NF = 1.0236
+ VAF = 26.867        IKF = 0.025252    ISE = 1.3093e-13
+ NE = 1.9818         BR = 20.325       NR = 0.93013
+ VAR = 3.2134        IKR = 0.012138    ISC = 6.1852e-15
+ NC = 1.6195         RB = 1.4255       IRB = 1e-05
+ RBM = 60            RE = 3.7045       RC = 0.56
+ CJE = 3.2473e-15    VJE = 1.1812      MJE = 0.41827
+ TF = 1.4866e-11     XTF = 0.3062      VTF = 0.22023
+ ITF = 0.0010202     PTF = 0           CJC = 1.8369e-13
+ VJC = 1.1812        MJC = 0.30423     XCJC = 0.08334
+ TR = 2.2648e-09     CJS= 0            VJS = 0.75
+ MJS = 0             XTB = 0           EG = 1.11
+ XTI = 3             FC = 0.87906)
***************************************************************
.MODEL BFR180 NPN(
+ IS = 1.8519e-16     BF = 94.687       NF = 1.0236
+ VAF = 26.867        IKF = 0.025252    ISE = 1.3093e-13
+ NE = 1.9818         BR = 20.325       NR = 0.93013
+ VAR = 3.2134        IKR = 0.012138    ISC = 6.1852e-15
+ NC = 1.6195         RB = 1.4255       IRB = 1e-05
+ RBM = 60            RE = 3.7045       RC = 0.56
+ CJE = 3.2473e-15    VJE = 1.1812      MJE = 0.41827
+ TF = 1.4866e-11     XTF = 0.3062      VTF = 0.22023
+ ITF = 0.0010202     PTF = 0           CJC = 1.8369e-13
+ VJC = 1.1812        MJC = 0.30423     XCJC = 0.08334
+ TR = 2.2648e-09     CJS= 0            VJS = 0.75
+ MJS = 0             XTB = 0           EG = 1.11
+ XTI = 3             FC = 0.87906)
***************************************************************
.MODEL BFP180 NPN(
+ IS = 1.8519e-16     BF = 94.687       NF = 1.0236
+ VAF = 26.867        IKF = 0.025252    ISE = 1.3093e-13
+ NE = 1.9818         BR = 20.325       NR = 0.93013
+ VAR = 3.2134        IKR = 0.012138    ISC = 6.1852e-15
+ NC = 1.6195         RB = 1.4255       IRB = 1e-05
+ RBM = 60            RE = 3.7045       RC = 0.56
+ CJE = 3.2473e-15    VJE = 1.1812      MJE = 0.41827
+ TF = 1.4866e-11     XTF = 0.3062      VTF = 0.22023
+ ITF = 0.0010202     PTF = 0           CJC = 1.8369e-13
+ VJC = 1.1812        MJC = 0.30423     XCJC = 0.08334
+ TR = 2.2648e-09     CJS= 0            VJS = 0.75
+ MJS = 0             XTB = 0           EG = 1.11
+ XTI = 3             FC = 0.87906)
***************************************************************
.MODEL BFR280W NPN(
+ IS = 6.472e-15      BF = 89.888       NF = 1.0801
+ VAF = 25.609        IKF = 0.073457    ISE = 1.5596e-14
+ NE = 1.6163         BR = 20.238       NR = 0.83403
+ VAR = 5.6909        IKR = 0.012696    ISC = 1.409e-15
+ NC = 1.0651         RB = 15           IRB = 3.1958e-05
+ RBM = 14.999        RE = 2.4518       RC = 6.989
+ CJE = 3.6218e-14    VJE = 0.70035     MJE = 0.69773
+ TF = 1.1744e-11     XTF = 0.21585     VTF = 0.2035
+ ITF = 0.0062179     PTF = 0           CJC = 2.5299e-13
+ VJC = 1.1943        MJC = 0.30017     XCJC = 0.19188
+ TR = 2.3693e-09     CJS= 0            VJS = 0.75
+ MJS = 0             XTB = 0           EG = 1.11
+ XTI = 3             FC = 0.96275)
***************************************************************
.MODEL BFP280W NPN(
+ IS = 6.472e-15      BF = 89.888       NF = 1.0801
+ VAF = 25.609        IKF = 0.073457    ISE = 1.5596e-14
+ NE = 1.6163         BR = 20.238       NR = 0.83403
+ VAR = 5.6909        IKR = 0.012696    ISC = 1.409e-15
+ NC = 1.0651         RB = 15           IRB = 3.1958e-05
+ RBM = 14.999        RE = 2.4518       RC = 6.989
+ CJE = 3.6218e-14    VJE = 0.70035     MJE = 0.69773
+ TF = 1.1744e-11     XTF = 0.21585     VTF = 0.2035
+ ITF = 0.0062179     PTF = 0           CJC = 2.5299e-13
+ VJC = 1.1943        MJC = 0.30017     XCJC = 0.19188
+ TR = 2.3693e-09     CJS= 0            VJS = 0.75
+ MJS = 0             XTB = 0           EG = 1.11
+ XTI = 3             FC = 0.96275)
***************************************************************
.MODEL BFS480 NPN(
+ IS = 6.472e-15      BF = 89.888       NF = 1.0801
+ VAF = 25.609        IKF = 0.073457    ISE = 1.5596e-14
+ NE = 1.6163         BR = 20.238       NR = 0.83403
+ VAR = 5.6909        IKR = 0.012696    ISC = 1.409e-15
+ NC = 1.0651         RB = 15           IRB = 3.1958e-05
+ RBM = 14.999        RE = 2.4518       RC = 6.989
+ CJE = 3.6218e-14    VJE = 0.70035     MJE = 0.69773
+ TF = 1.1744e-11     XTF = 0.21585     VTF = 0.2035
+ ITF = 0.0062179     PTF = 0           CJC = 2.5299e-13
+ VJC = 1.1943        MJC = 0.30017     XCJC = 0.19188
+ TR = 2.3693e-09     CJS= 0            VJS = 0.75
+ MJS = 0             XTB = 0           EG = 1.11
+ XTI = 3             FC = 0.96275)
***************************************************************
.MODEL BFR280 NPN(
+ IS = 6.472e-15      BF = 89.888       NF = 1.0801
+ VAF = 25.609        IKF = 0.073457    ISE = 1.5596e-14
+ NE = 1.6163         BR = 20.238       NR = 0.83403
+ VAR = 5.6909        IKR = 0.012696    ISC = 1.409e-15
+ NC = 1.0651         RB = 15           IRB = 3.1958e-05
+ RBM = 14.999        RE = 2.4518       RC = 6.989
+ CJE = 3.6218e-14    VJE = 0.70035     MJE = 0.69773
+ TF = 1.1744e-11     XTF = 0.21585     VTF = 0.2035
+ ITF = 0.0062179     PTF = 0           CJC = 2.5299e-13
+ VJC = 1.1943        MJC = 0.30017     XCJC = 0.19188
+ TR = 2.3693e-09     CJS= 0            VJS = 0.75
+ MJS = 0             XTB = 0           EG = 1.11
+ XTI = 3             FC = 0.96275)
***************************************************************
.MODEL BFP280 NPN(
+ IS = 6.472e-15      BF = 89.888       NF = 1.0801
+ VAF = 25.609        IKF = 0.073457    ISE = 1.5596e-14
+ NE = 1.6163         BR = 20.238       NR = 0.83403
+ VAR = 5.6909        IKR = 0.012696    ISC = 1.409e-15
+ NC = 1.0651         RB = 15           IRB = 3.1958e-05
+ RBM = 14.999        RE = 2.4518       RC = 6.989
+ CJE = 3.6218e-14    VJE = 0.70035     MJE = 0.69773
+ TF = 1.1744e-11     XTF = 0.21585     VTF = 0.2035
+ ITF = 0.0062179     PTF = 0           CJC = 2.5299e-13
+ VJC = 1.1943        MJC = 0.30017     XCJC = 0.19188
+ TR = 2.3693e-09     CJS= 0            VJS = 0.75
+ MJS = 0             XTB = 0           EG = 1.11
+ XTI = 3             FC = 0.96275)
***************************************************************
.MODEL BFR182W NPN(
+ IS = 4.8499e-15     BF = 84.113       NF = 0.56639
+ VAF = 21.742        IKF = 0.14414     ISE = 8.4254e-15
+ NE = 0.91624        BR = 10.004       NR = 0.54818
+ VAR = 2.2595        IKR = 0.039478    ISC = 5.9438e-15
+ NC = 0.5641         RB = 2.8263       IRB = 7.1955e-05
+ RBM = 3.4217        RE = 2.1858       RC = 1.8159
+ CJE = 8.8619e-15    VJE = 1.0378      MJE = 0.40796
+ TF = 2.272e-11      XTF = 0.43147     VTF = 0.34608
+ ITF = 0.0065523     PTF = 0           CJC = 4.9025e-13
+ VJC = 1.0132        MJC = 0.31068     XCJC = 0.19281
+ TR = 1.7541e-09     CJS= 0            VJS = 0.75
+ MJS = 0             XTB = 0           EG = 1.11
+ XTI = 3             FC = 0.64175)
***************************************************************
.MODEL BFP182W NPN(
+ IS = 4.8499e-15     BF = 84.113       NF = 0.56639
+ VAF = 21.742        IKF = 0.14414     ISE = 8.4254e-15
+ NE = 0.91624        BR = 10.004       NR = 0.54818
+ VAR = 2.2595        IKR = 0.039478    ISC = 5.9438e-15
+ NC = 0.5641         RB = 2.8263       IRB = 7.1955e-05
+ RBM = 3.4217        RE = 2.1858       RC = 1.8159
+ CJE = 8.8619e-15    VJE = 1.0378      MJE = 0.40796
+ TF = 2.272e-11      XTF = 0.43147     VTF = 0.34608
+ ITF = 0.0065523     PTF = 0           CJC = 4.9025e-13
+ VJC = 1.0132        MJC = 0.31068     XCJC = 0.19281
+ TR = 1.7541e-09     CJS= 0            VJS = 0.75
+ MJS = 0             XTB = 0           EG = 1.11
+ XTI = 3             FC = 0.64175)
***************************************************************
.MODEL BFS482 NPN(
+ IS = 4.8499e-15     BF = 84.113       NF = 0.56639
+ VAF = 21.742        IKF = 0.14414     ISE = 8.4254e-15
+ NE = 0.91624        BR = 10.004       NR = 0.54818
+ VAR = 2.2595        IKR = 0.039478    ISC = 5.9438e-15
+ NC = 0.5641         RB = 2.8263       IRB = 7.1955e-05
+ RBM = 3.4217        RE = 2.1858       RC = 1.8159
+ CJE = 8.8619e-15    VJE = 1.0378      MJE = 0.40796
+ TF = 2.272e-11      XTF = 0.43147     VTF = 0.34608
+ ITF = 0.0065523     PTF = 0           CJC = 4.9025e-13
+ VJC = 1.0132        MJC = 0.31068     XCJC = 0.19281
+ TR = 1.7541e-09     CJS= 0            VJS = 0.75
+ MJS = 0             XTB = 0           EG = 1.11
+ XTI = 3             FC = 0.64175)
***************************************************************
.MODEL BFR182 NPN(
+ IS = 4.8499e-15     BF = 84.113       NF = 0.56639
+ VAF = 21.742        IKF = 0.14414     ISE = 8.4254e-15
+ NE = 0.91624        BR = 10.004       NR = 0.54818
+ VAR = 2.2595        IKR = 0.039478    ISC = 5.9438e-15
+ NC = 0.5641         RB = 2.8263       IRB = 7.1955e-05
+ RBM = 3.4217        RE = 2.1858       RC = 1.8159
+ CJE = 8.8619e-15    VJE = 1.0378      MJE = 0.40796
+ TF = 2.272e-11      XTF = 0.43147     VTF = 0.34608
+ ITF = 0.0065523     PTF = 0           CJC = 4.9025e-13
+ VJC = 1.0132        MJC = 0.31068     XCJC = 0.19281
+ TR = 1.7541e-09     CJS= 0            VJS = 0.75
+ MJS = 0             XTB = 0           EG = 1.11
+ XTI = 3             FC = 0.64175)
***************************************************************
.MODEL BFP182 NPN(
+ IS = 4.8499e-15     BF = 84.113       NF = 0.56639
+ VAF = 21.742        IKF = 0.14414     ISE = 8.4254e-15
+ NE = 0.91624        BR = 10.004       NR = 0.54818
+ VAR = 2.2595        IKR = 0.039478    ISC = 5.9438e-15
+ NC = 0.5641         RB = 2.8263       IRB = 7.1955e-05
+ RBM = 3.4217        RE = 2.1858       RC = 1.8159
+ CJE = 8.8619e-15    VJE = 1.0378      MJE = 0.40796
+ TF = 2.272e-11      XTF = 0.43147     VTF = 0.34608
+ ITF = 0.0065523     PTF = 0           CJC = 4.9025e-13
+ VJC = 1.0132        MJC = 0.31068     XCJC = 0.19281
+ TR = 1.7541e-09     CJS= 0            VJS = 0.75
+ MJS = 0             XTB = 0           EG = 1.11
+ XTI = 3             FC = 0.64175)
***************************************************************
.MODEL BFR181W NPN(
+ IS = 1.0519e-18     BF = 96.461       NF = 0.90617
+ VAF = 22.403        IKF = 0.12146     ISE = 1.2603e-14
+ NE = 1.7631         BR = 16.504       NR = 0.87757
+ VAR = 5.1127        IKR = 0.24951     ISC = 1.1195e-17
+ NC = 1.6528         RB = 9.9037       IRB = 0.00069278
+ RBM = 6.6315        RE = 2.1372       RC = 2.2171
+ CJE = 1.8168e-15    VJE = 0.73155     MJE = 0.43619
+ TF = 1.7028e-11     XTF = 0.33814     VTF = 0.12571
+ ITF = 0.0010549     PTF = 0           CJC = 3.1969e-13
+ VJC = 1.1633        MJC = 0.30013     XCJC = 0.082903
+ TR = 2.7449e-09     CJS= 0            VJS = 0.75
+ MJS = 0             XTB = 0           EG = 1.11
+ XTI = 3             FC = 0.99768)
***************************************************************
.MODEL BFP181W NPN(
+ IS = 1.0519e-18     BF = 96.461       NF = 0.90617
+ VAF = 22.403        IKF = 0.12146     ISE = 1.2603e-14
+ NE = 1.7631         BR = 16.504       NR = 0.87757
+ VAR = 5.1127        IKR = 0.24951     ISC = 1.1195e-17
+ NC = 1.6528         RB = 9.9037       IRB = 0.00069278
+ RBM = 6.6315        RE = 2.1372       RC = 2.2171
+ CJE = 1.8168e-15    VJE = 0.73155     MJE = 0.43619
+ TF = 1.7028e-11     XTF = 0.33814     VTF = 0.12571
+ ITF = 0.0010549     PTF = 0           CJC = 3.1969e-13
+ VJC = 1.1633        MJC = 0.30013     XCJC = 0.082903
+ TR = 2.7449e-09     CJS= 0            VJS = 0.75
+ MJS = 0             XTB = 0           EG = 1.11
+ XTI = 3             FC = 0.99768)
***************************************************************
.MODEL BFS481 NPN(
+ IS = 1.0519e-18     BF = 96.461       NF = 0.90617
+ VAF = 22.403        IKF = 0.12146     ISE = 1.2603e-14
+ NE = 1.7631         BR = 16.504       NR = 0.87757
+ VAR = 5.1127        IKR = 0.24951     ISC = 1.1195e-17
+ NC = 1.6528         RB = 9.9037       IRB = 0.00069278
+ RBM = 6.6315        RE = 2.1372       RC = 2.2171
+ CJE = 1.8168e-15    VJE = 0.73155     MJE = 0.43619
+ TF = 1.7028e-11     XTF = 0.33814     VTF = 0.12571
+ ITF = 0.0010549     PTF = 0           CJC = 3.1969e-13
+ VJC = 1.1633        MJC = 0.30013     XCJC = 0.082903
+ TR = 2.7449e-09     CJS= 0            VJS = 0.75
+ MJS = 0             XTB = 0           EG = 1.11
+ XTI = 3             FC = 0.99768)
***************************************************************
.MODEL BFR181 NPN(
+ IS = 1.0519e-18     BF = 96.461       NF = 0.90617
+ VAF = 22.403        IKF = 0.12146     ISE = 1.2603e-14
+ NE = 1.7631         BR = 16.504       NR = 0.87757
+ VAR = 5.1127        IKR = 0.24951     ISC = 1.1195e-17
+ NC = 1.6528         RB = 9.9037       IRB = 0.00069278
+ RBM = 6.6315        RE = 2.1372       RC = 2.2171
+ CJE = 1.8168e-15    VJE = 0.73155     MJE = 0.43619
+ TF = 1.7028e-11     XTF = 0.33814     VTF = 0.12571
+ ITF = 0.0010549     PTF = 0           CJC = 3.1969e-13
+ VJC = 1.1633        MJC = 0.30013     XCJC = 0.082903
+ TR = 2.7449e-09     CJS= 0            VJS = 0.75
+ MJS = 0             XTB = 0           EG = 1.11
+ XTI = 3             FC = 0.99768)
***************************************************************
.MODEL BFP181 NPN(
+ IS = 1.0519e-18     BF = 96.461       NF = 0.90617
+ VAF = 22.403        IKF = 0.12146     ISE = 1.2603e-14
+ NE = 1.7631         BR = 16.504       NR = 0.87757
+ VAR = 5.1127        IKR = 0.24951     ISC = 1.1195e-17
+ NC = 1.6528         RB = 9.9037       IRB = 0.00069278
+ RBM = 6.6315        RE = 2.1372       RC = 2.2171
+ CJE = 1.8168e-15    VJE = 0.73155     MJE = 0.43619
+ TF = 1.7028e-11     XTF = 0.33814     VTF = 0.12571
+ ITF = 0.0010549     PTF = 0           CJC = 3.1969e-13
+ VJC = 1.1633        MJC = 0.30013     XCJC = 0.082903
+ TR = 2.7449e-09     CJS= 0            VJS = 0.75
+ MJS = 0             XTB = 0           EG = 1.11
+ XTI = 3             FC = 0.99768)
***************************************************************
.MODEL BFR183W NPN(
+ IS = 1.0345e-15     BF = 115.98       NF = 0.80799
+ VAF = 14.772        IKF = 0.14562     ISE = 1.6818e-14
+ NE = 1.2149         BR = 10.016       NR = 0.99543
+ VAR = 3.4276        IKR = 0.013483    ISC = 1.3559e-15
+ NC = 0.85331        RB = 1.0112       IRB = 0.00043801
+ RBM = 2.5426        RE = 1.3435       RC = 0.20486
+ CJE = 2.3077e-14    VJE = 1.0792      MJE = 0.45354
+ TF = 2.2746e-11     XTF = 0.36823     VTF = 0.50905
+ ITF = 0.0018773     PTF = 0           CJC = 4.6011e-13
+ VJC = 1.1967        MJC = 0.3         XCJC = 0.053823
+ TR = 1.0553e-09     CJS= 0            VJS = 0.75
+ MJS = 0             XTB = 0           EG = 1.11
+ XTI = 3             FC = 0.54852)
***************************************************************
.MODEL BFP183W NPN(
+ IS = 1.0345e-15     BF = 115.98       NF = 0.80799
+ VAF = 14.772        IKF = 0.14562     ISE = 1.6818e-14
+ NE = 1.2149         BR = 10.016       NR = 0.99543
+ VAR = 3.4276        IKR = 0.013483    ISC = 1.3559e-15
+ NC = 0.85331        RB = 1.0112       IRB = 0.00043801
+ RBM = 2.5426        RE = 1.3435       RC = 0.20486
+ CJE = 2.3077e-14    VJE = 1.0792      MJE = 0.45354
+ TF = 2.2746e-11     XTF = 0.36823     VTF = 0.50905
+ ITF = 0.0018773     PTF = 0           CJC = 4.6011e-13
+ VJC = 1.1967        MJC = 0.3         XCJC = 0.053823
+ TR = 1.0553e-09     CJS= 0            VJS = 0.75
+ MJS = 0             XTB = 0           EG = 1.11
+ XTI = 3             FC = 0.54852)
***************************************************************
.MODEL BFS483 NPN(
+ IS = 1.0345e-15     BF = 115.98       NF = 0.80799
+ VAF = 14.772        IKF = 0.14562     ISE = 1.6818e-14
+ NE = 1.2149         BR = 10.016       NR = 0.99543
+ VAR = 3.4276        IKR = 0.013483    ISC = 1.3559e-15
+ NC = 0.85331        RB = 1.0112       IRB = 0.00043801
+ RBM = 2.5426        RE = 1.3435       RC = 0.20486
+ CJE = 2.3077e-14    VJE = 1.0792      MJE = 0.45354
+ TF = 2.2746e-11     XTF = 0.36823     VTF = 0.50905
+ ITF = 0.0018773     PTF = 0           CJC = 4.6011e-13
+ VJC = 1.1967        MJC = 0.3         XCJC = 0.053823
+ TR = 1.0553e-09     CJS= 0            VJS = 0.75
+ MJS = 0             XTB = 0           EG = 1.11
+ XTI = 3             FC = 0.54852)
***************************************************************
.MODEL BFR183 NPN(
+ IS = 1.0345e-15     BF = 115.98       NF = 0.80799
+ VAF = 14.772        IKF = 0.14562     ISE = 1.6818e-14
+ NE = 1.2149         BR = 10.016       NR = 0.99543
+ VAR = 3.4276        IKR = 0.013483    ISC = 1.3559e-15
+ NC = 0.85331        RB = 1.0112       IRB = 0.00043801
+ RBM = 2.5426        RE = 1.3435       RC = 0.20486
+ CJE = 2.3077e-14    VJE = 1.0792      MJE = 0.45354
+ TF = 2.2746e-11     XTF = 0.36823     VTF = 0.50905
+ ITF = 0.0018773     PTF = 0           CJC = 4.6011e-13
+ VJC = 1.1967        MJC = 0.3         XCJC = 0.053823
+ TR = 1.0553e-09     CJS= 0            VJS = 0.75
+ MJS = 0             XTB = 0           EG = 1.11
+ XTI = 3             FC = 0.54852)
***************************************************************
.MODEL BFP183 NPN(
+ IS = 1.0345e-15     BF = 115.98       NF = 0.80799
+ VAF = 14.772        IKF = 0.14562     ISE = 1.6818e-14
+ NE = 1.2149         BR = 10.016       NR = 0.99543
+ VAR = 3.4276        IKR = 0.013483    ISC = 1.3559e-15
+ NC = 0.85331        RB = 1.0112       IRB = 0.00043801
+ RBM = 2.5426        RE = 1.3435       RC = 0.20486
+ CJE = 2.3077e-14    VJE = 1.0792      MJE = 0.45354
+ TF = 2.2746e-11     XTF = 0.36823     VTF = 0.50905
+ ITF = 0.0018773     PTF = 0           CJC = 4.6011e-13
+ VJC = 1.1967        MJC = 0.3         XCJC = 0.053823
+ TR = 1.0553e-09     CJS= 0            VJS = 0.75
+ MJS = 0             XTB = 0           EG = 1.11
+ XTI = 3             FC = 0.54852)
***************************************************************
.MODEL BFR193W NPN(
+ IS = 2.738e-16      BF = 125          NF = 0.95341
+ VAF = 24            IKF = 0.26949     ISE = 1.0627e-14
+ NE = 1.935          BR = 14.267       NR = 1.4289
+ VAR = 3.8742        IKR = 0.037925    ISC = 3.7409e-17
+ NC = 0.94371        RB = 1            IRB = 0.00091763
+ RBM = 1.8368        RE = 0.76534      RC = 0.11938
+ CJE = 1.1824e-15    VJE = 0.70276     MJE = 0.48654
+ TF = 1.8828e-11     XTF = 0.69477     VTF = 0.8
+ ITF = 0.00096893    PTF = 0           CJC = 9.3503e-13
+ VJC = 1.1828        MJC = 0.30002     XCJC = 0.053563
+ TR = 1.0037e-09     CJS= 0            VJS = 0.75
+ MJS = 0             XTB = 0           EG = 1.11
+ XTI = 3             FC = 0.72063)
***************************************************************
.MODEL BFP193W NPN(
+ IS = 2.738e-16      BF = 125          NF = 0.95341
+ VAF = 24            IKF = 0.26949     ISE = 1.0627e-14