*          COPYRIGHT  Zetex Spice Model Library 2V0
*                      (Last Revision Sept./95)
*
*
*
*ZETEX  2N2222A Spice model   Last revision 9/12/92
*
.MODEL Q2N2222A NPN IS =3.0611E-14 NF =1.00124 BF =220 IKF=0.52 
+              VAF=104 ISE=7.5E-15 NE =1.41 NR =1.005 BR =4 IKR=0.24 
+              VAR=28 ISC=1.06525E-11 NC =1.3728 RB =0.13 RE =0.22 
+              RC =0.12 CJC=9.12E-12 MJC=0.3508 VJC=0.4089 
+              CJE=27.01E-12 TF =0.325E-9 TR =100E-9
*
*ZETEX  2N6715 Spice model   Last revision  16/1/91
*   
.MODEL Q2N6715 NPN IS =2.218E-13 NF =.9956 BF =230 IKF=2 VAF=100 ISE=2.9E-14
+NE =1.35 NR =.995 BR =56 IKR=1 VAR=30 ISC=2.971E-13 NC =1.321 RB =.04
+RE =.075 RC =.069 CJC=51E-12 MJC=.42 VJC=.595 CJE=318E-12 TF =.77E-9
+TR =27E-9
*
.MODEL Q2SC2873 NPN IS =3E-13 BF =225 VAF=80 IKF=2.8 ISE=1.1E-13 NE =1.37
+BR =110 VAR=28 NR =.972 IKR=0.8 ISC=6.5E-13 NC =1.372 RB =0.3 RE =.063
+RC =.07 CJE=325E-12 TF =1E-9 CJC=70E-12 TR =10E-9
*
.MODEL BC107BP NPN IS =1.8E-14 ISE=5.0E-14 NF =.9955 NE =1.46 BF =400 BR =35.5
+IKF=.14 IKR=.03 ISC=1.72E-13 NC =1.27 NR =1.005 RB =.56 RE =.6 RC =.25 VAF=80
+VAR=12.5 CJE=13E-12 TF =.64E-9 CJC=4E-12 TR =50.72E-9 VJC=.54 MJC=.33
*
*ZETEX  BC108BP Spice model     Last revision  4/90
*
.MODEL BC108BP NPN IS =1.8E-14 ISE=5.0E-14 NF =.9955 NE =1.46 BF =400 BR =35.5
+IKF=.14 IKR=.03 ISC=1.72E-13 NC =1.27 NR =1.005 RB =.56 RE =.6 RC =.25 VAF=80
+VAR=12.5 CJE=13E-12 TF =.64E-9 CJC=4E-12 TR =50.72E-9 VJC=.54 MJC=.33
*
*ZETEX  BC109BP Spice model     Last revision  4/90
*
.MODEL BC109BP NPN IS =1.8E-14 ISE=5.0E-14 NF =.9955 NE =1.46 BF =400 BR =35.5
+IKF=.14 IKR=.03 ISC=1.72E-13 NC =1.27 NR =1.005 RB =.56 RE =.6 RC =.25 VAF=80
+VAR=12.5 CJE=13E-12 TF =.64E-9 CJC=4E-12 TR =50.72E-9 VJC=.54 MJC=.33
*
*
*ZETEX  BC182BP Spice model     Last revision  4/90
*
.MODEL BC182BP NPN IS =1.8E-14 ISE=5.0E-14 NF =.9955 NE =1.46 BF =400 BR =35.5
+IKF=.14 IKR=.03 ISC=1.72E-13 NC =1.27 NR =1.005 RB =.56 RE =.6 RC =.25 VAF=80
+VAR=12.5 CJE=13E-12 TF =.64E-9 CJC=4E-12 TR =50.72E-9 VJC=.54 MJC=.33
*
*ZETEX  BC183BP Spice model     Last revision  4/90
*
.MODEL BC183BP NPN IS =1.8E-14 ISE=5.0E-14 NF =.9955 NE =1.46 BF =400 BR =35.5
+IKF=.14 IKR=.03 ISC=1.72E-13 NC =1.27 NR =1.005 RB =.56 RE =.6 RC =.25 VAF=80
+VAR=12.5 CJE=13E-12 TF =.64E-9 CJC=4E-12 TR =50.72E-9 VJC=.54 MJC=.33
*
*ZETEX  BC184BP Spice model     Last revision  4/90
*
.MODEL BC184BP NPN IS =1.8E-14 ISE=5.0E-14 NF =.9955 NE =1.46 BF =400 BR =35.5
+IKF=.14 IKR=.03 ISC=1.72E-13 NC =1.27 NR =1.005 RB =.56 RE =.6 RC =.25 VAF=80
+VAR=12.5 CJE=13E-12 TF =.64E-9 CJC=4E-12 TR =50.72E-9 VJC=.54 MJC=.33
*
.MODEL BC237BP NPN IS =1.8E-14 ISE=5.0E-14 NF =.9955 NE =1.46 BF =400 BR =35.5
+IKF=.14 IKR=.03 ISC=1.72E-13 NC =1.27 NR =1.005 RB =.56 RE =.6 RC =.25 VAF=80
+VAR=12.5 CJE=13E-12 TF =.64E-9 CJC=4E-12 TR =50.72E-9 VJC=.54 MJC=.33
*
*ZETEX  BC238BP Spice model     Last revision  4/90
*
.MODEL BC238BP NPN IS =1.8E-14 ISE=5.0E-14 NF =.9955 NE =1.46 BF =400 BR =35.5
+IKF=.14 IKR=.03 ISC=1.72E-13 NC =1.27 NR =1.005 RB =.56 RE =.6 RC =.25 VAF=80
+VAR=12.5 CJE=13E-12 TF =.64E-9 CJC=4E-12 TR =50.72E-9 VJC=.54 MJC=.33
*
*ZETEX  BC239BP Spice model     Last revision  4/90
*
.MODEL BC239BP NPN IS =1.8E-14 ISE=5.0E-14 NF =.9955 NE =1.46 BF =400 BR =35.5
+IKF=.14 IKR=.03 ISC=1.72E-13 NC =1.27 NR =1.005 RB =.56 RE =.6 RC =.25 VAF=80
+VAR=12.5 CJE=13E-12 TF =.64E-9 CJC=4E-12 TR =50.72E-9 VJC=.54 MJC=.33
*
.MODEL BC337AP NPN IS =3.941445E-14 BF =175 VAF=109.45 NF =1 IKF=.8
+ISE=7.4025E-15 NE =1.3 BR =20.5 VAR=14.25 NR =.974 IKR=.1 ISC=3.157E-13
+NC =1.2 RB =1.1 RE =.1259 RC =.0539 CJE=63E-12 TF =.75E-9 CJC=15.8E-12
+TR =85E-9 VJC=.505 MJC=.39
*
*ZETEX  BC338AP Spice model     Last revision  4/90
*
.MODEL BC338AP NPN IS =3.941445E-14 BF =175 VAF=109.45 NF =1 IKF=.8
+ISE=7.4025E-15 NE =1.3 BR =20.5 VAR=14.25 NR =.974 IKR=.1 ISC=3.157E-13
+NC =1.2 RB =1.1 RE =.1259 RC =.0539 CJE=63E-12 TF =.75E-9 CJC=15.8E-12
+TR =85E-9 VJC=.505 MJC=.39
*
*ZETEX  BC413BP Spice model     Last revision  4/90
*
.MODEL BC413BP NPN IS =1.8E-14 ISE=5.0E-14 NF =.9955 NE =1.46 BF =400 BR =35.5
+IKF=.14 IKR=.03 ISC=1.72E-13 NC =1.27 NR =1.005 RB =.56 RE =.6 RC =.25 VAF=80
+VAR=12.5 CJE=13E-12 TF =.64E-9 CJC=4E-12 TR =50.72E-9 VJC=.54 MJC=.33
*
*ZETEX  BC414BP Spice model     Last revision  4/90
*
.MODEL BC414BP NPN IS =1.8E-14 ISE=5.0E-14 NF =.9955 NE =1.46 BF =400 BR =35.5
+IKF=.14 IKR=.03 ISC=1.72E-13 NC =1.27 NR =1.005 RB =.56 RE =.6 RC =.25 VAF=80
+VAR=12.5 CJE=13E-12 TF =.64E-9 CJC=4E-12 TR =50.72E-9 VJC=.54 MJC=.33
*
.MODEL BC546BP NPN IS =1.8E-14 ISE=5.0E-14 NF =.9955 NE =1.46 BF =400 BR =35.5
+IKF=.14 IKR=.03 ISC=1.72E-13 NC =1.27 NR =1.005 RB =.56 RE =.6 RC =.25 VAF=80
+VAR=12.5 CJE=13E-12 TF =.64E-9 CJC=4E-12 TR =50.72E-9 VJC=.54 MJC=.33
*
*ZETEX  BC547BP Spice model     Last revision  4/90
*
.MODEL BC547BP NPN IS =1.8E-14 ISE=5.0E-14 NF =.9955 NE =1.46 BF =400 BR =35.5
+IKF=.14 IKR=.03 ISC=1.72E-13 NC =1.27 NR =1.005 RB =.56 RE =.6 RC =.25 VAF=80
+VAR=12.5 CJE=13E-12 TF =.64E-9 CJC=4E-12 TR =50.72E-9 VJC=.54 MJC=.33
*
*ZETEX  BC548BP Spice model     Last revision  4/90
*
.MODEL BC548BP NPN IS =1.8E-14 ISE=5.0E-14 NF =.9955 NE =1.46 BF =400 BR =35.5
+IKF=.14 IKR=.03 ISC=1.72E-13 NC =1.27 NR =1.005 RB =.56 RE =.6 RC =.25 VAF=80
+VAR=12.5 CJE=13E-12 TF =.64E-9 CJC=4E-12 TR =50.72E-9 VJC=.54 MJC=.33
*
*ZETEX  BC549BP Spice model     Last revision  4/90
*
.MODEL BC549BP NPN IS =1.8E-14 ISE=5.0E-14 NF =.9955 NE =1.46 BF =400 BR =35.5
+IKF=.14 IKR=.03 ISC=1.72E-13 NC =1.27 NR =1.005 RB =.56 RE =.6 RC =.25 VAF=80
+VAR=12.5 CJE=13E-12 TF =.64E-9 CJC=4E-12 TR =50.72E-9 VJC=.54 MJC=.33
*
*ZETEX  BC550BP Spice model     Last revision  4/90
*
.MODEL BC550BP NPN IS =1.8E-14 ISE=5.0E-14 NF =.9955 NE =1.46 BF =400 BR =35.5
+IKF=.14 IKR=.03 ISC=1.72E-13 NC =1.27 NR =1.005 RB =.56 RE =.6 RC =.25 VAF=80
+VAR=12.5 CJE=13E-12 TF =.64E-9 CJC=4E-12 TR =50.72E-9 VJC=.54 MJC=.33
*
*ZETEX  BC846B Spice model     Last revision  4/90
*
.MODEL BC846B NPN IS =1.8E-14 ISE=5.0E-14 NF =.9955 NE =1.46 BF =400 BR =35.5
+IKF=.14 IKR=.03 ISC=1.72E-13 NC =1.27 NR =1.005 RB =.56 RE =.6 RC =.25 VAF=80
+VAR=12.5 CJE=13E-12 TF =.64E-9 CJC=4E-12 TR =50.72E-9 VJC=.54 MJC=.33
*
*ZETEX  BC847B Spice model     Last revision  4/90
*
.MODEL BC847B NPN IS =1.8E-14 ISE=5.0E-14 NF =.9955 NE =1.46 BF =400 BR =35.5
+IKF=.14 IKR=.03 ISC=1.72E-13 NC =1.27 NR =1.005 RB =.56 RE =.6 RC =.25 VAF=80
+VAR=12.5 CJE=13E-12 TF =.64E-9 CJC=4E-12 TR =50.72E-9 VJC=.54 MJC=.33
*
*ZETEX  BC848B Spice model     Last revision  4/90
*
.MODEL BC848B NPN IS =1.8E-14 ISE=5.0E-14 NF =.9955 NE =1.46 BF =400 BR =35.5
+IKF=.14 IKR=.03 ISC=1.72E-13 NC =1.27 NR =1.005 RB =.56 RE =.6 RC =.25 VAF=80
+VAR=12.5 CJE=13E-12 TF =.64E-9 CJC=4E-12 TR =50.72E-9 VJC=.54 MJC=.33
*
*ZETEX  BC849B Spice model     Last revision  4/90
*
.MODEL BC849B NPN IS =1.8E-14 ISE=5.0E-14 NF =.9955 NE =1.46 BF =400 BR =35.5
+IKF=.14 IKR=.03 ISC=1.72E-13 NC =1.27 NR =1.005 RB =.56 RE =.6 RC =.25 VAF=80
+VAR=12.5 CJE=13E-12 TF =.64E-9 CJC=4E-12 TR =50.72E-9 VJC=.54 MJC=.33
*
*ZETEX  BC850B Spice model     Last revision  4/90
*
.MODEL BC850B NPN IS =1.8E-14 ISE=5.0E-14 NF =.9955 NE =1.46 BF =400 BR =35.5
+IKF=.14 IKR=.03 ISC=1.72E-13 NC =1.27 NR =1.005 RB =.56 RE =.6 RC =.25 VAF=80
+VAR=12.5 CJE=13E-12 TF =.64E-9 CJC=4E-12 TR =50.72E-9 VJC=.54 MJC=.33
*
*ZETEX  BCV72 Spice model      Last revision 4/90
*
.MODEL BCV72 NPN IS =1.8E-14 ISE=5.0E-14 NF =.9955 NE =1.46 BF =400 BR =35.5
+IKF=.14 IKR=.03 ISC=1.72E-13 NC =1.27 NR =1.005 RB =.56 RE =.6 RC =.25 VAF=80
+VAR=12.5 CJE=13E-12 TF =.64E-9 CJC=4E-12 TR =50.72E-9 VJC=.54 MJC=.33
*
*ZETEX  BCW32 Spice model      Last revision 4/90
*
.MODEL BCW32 NPN IS =1.8E-14 ISE=5.0E-14 NF =.9955 NE =1.46 BF =400 BR =35.5
+IKF=.14 IKR=.03 ISC=1.72E-13 NC =1.27 NR =1.005 RB =.56 RE =.6 RC =.25 VAF=80
+VAR=12.5 CJE=13E-12 TF =.64E-9 CJC=4E-12 TR =50.72E-9 VJC=.54 MJC=.33
*
*ZETEX  BCW60C Spice model     Last revision  4/90
*
.MODEL BCW60C NPN IS =1.8E-14 ISE=5.0E-14 NF =.9955 NE =1.46 BF =400 BR =35.5
+IKF=.14 IKR=.03 ISC=1.72E-13 NC =1.27 NR =1.005 RB =.56 RE =.6 RC =.25 VAF=80
+VAR=12.5 CJE=13E-12 TF =.64E-9 CJC=4E-12 TR =50.72E-9 VJC=.54 MJC=.33
*
*ZETEX  BCW65A Spice model     Last revision  4/90
*
.MODEL BCW65A NPN IS =3.941445E-14 BF =175 VAF=109.45 NF =1 IKF=.8
+ISE=7.4025E-15 NE =1.3 BR =20.5 VAR=14.25 NR =.974 IKR=.1 ISC=3.157E-13
+NC =1.2 RB =1.1 RE =.1259 RC =.0539 CJE=63E-12 TF =.75E-9 CJC=15.8E-12
+TR =85E-9 VJC=.505 MJC=.39
*
*ZETEX  BCW66F Spice model     Last revision  4/90
*
.MODEL BCW66F NPN IS =3.941445E-14 BF =175 VAF=109.45 NF =1 IKF=.8
+ISE=7.4025E-15 NE =1.3 BR =20.5 VAR=14.25 NR =.974 IKR=.1 ISC=3.157E-13
+NC =1.2 RB =1.1 RE =.1259 RC =.0539 CJE=63E-12 TF =.75E-9 CJC=15.8E-12
+TR =85E-9 VJC=.505 MJC=.39
*
*ZETEX  BCW72 Spice model     Last revision  4/90
*
.MODEL BCW72 NPN IS =1.8E-14 ISE=5.0E-14 NF =.9955 NE =1.46 BF =400 BR =35.5
+IKF=.14 IKR=.03 ISC=1.72E-13 NC =1.27 NR =1.005 RB =.56 RE =.6 RC =.25 VAF=80
+VAR=12.5 CJE=13E-12 TF =.64E-9 CJC=4E-12 TR =50.72E-9 VJC=.54 MJC=.33
*
*ZETEX  BCX38B Darlington Spice Subcircuit   Last revision  4/9/90
*
.SUBCKT BCX38B 1 2 3
*              C B E
Q1 1 2 4 SUB38B
Q2 1 4 3 SUB38B 12.75
*
.MODEL SUB38B NPN IS =1.1E-14 ISE=7.1E-15 NF =1.012 NE =1.4758 BF =147 IKF=.12
+BR =15 IKR=.05 RE =1.3 RC =.5 RB =.3 VAF=150 CJE=14.5E-12 CJC=4.14E-12
+VJC=.515 MJC=.26 TF =1.15E-9 TR =75E-9
.ENDS BCX38B
*
*ZETEX  BCX70J Spice model     Last revision  4/90
*
.MODEL BCX70J NPN IS =1.8E-14 ISE=5.0E-14 NF =.9955 NE =1.46 BF =400 BR =35.5
+IKF=.14 IKR=.03 ISC=1.72E-13 NC =1.27 NR =1.005 RB =.56 RE =.6 RC =.25 VAF=80
+VAR=12.5 CJE=13E-12 TF =.64E-9 CJC=4E-12 TR =50.72E-9 VJC=.54 MJC=.33
*
*ZETEX  BFQ31 Spice model   Last revision 9/90
*
.MODEL BFQ31 NPN IS =1.73E-13 BF =200 VAF=90 IKF=8.8E-3 ISE=241E-12 NE =1.701
+BR =3.124 VAR=9.7 NR =.9705 IKR=.02 ISC=8.31E-13 NC =1.112 RB =17 RE =2.13
+RC =30 CJE=2.27E-12 TF =.2E-9 CJC=1.2E-12 TR =1E-9 VJC=.415 MJC=.145
*
*ZETEX  BFS17 Spice model   Last revision 9/3/93
*
.MODEL BFS17  NPN IS =4.9E-16 NF =.993 BF =93 VAF=90 IKF=.055 
+             ISE=1E-14 NE =1.800 BR =25 VAR=6 NR =1.005 IKR=.01 
+             ISC=4.5E-15 NC =1.2 RB =7 RBM=.5 IRB=5E-4 RE =.5 
+             RC =2.0 TF =5E-11 XTF=100 ITF=2.3 TR =2.4E-8 
+             CJE=1.18E-12 CJC=1.54E-12 VJC=.559 MJC=.25 VJE=1.12 
+             MJE=.4
*
* NOTE: FOR RF OPERATION ADD PACKAGE INDUCTANCE OF 1.2E-9H PER LEAD
*
*
*ZETEX  BFS60 Spice model     Last revision  4/90
*
.MODEL BFS60 NPN IS =3.941445E-14 BF =175 VAF=109.45 NF =1 IKF=.8
+ISE=7.4025E-15 NE =1.3 BR =20.5 VAR=14.25 NR =.974 IKR=.1 ISC=3.157E-13
+NC =1.2 RB =1.1 RE =.1259 RC =.0539 CJE=63E-12 TF =.75E-9 CJC=15.8E-12
+TR =85E-9 VJC=.505 MJC=.39
*
*   ZETEX   FCX458   Spice model   Last revision 19/3/92
*
.MODEL FCX458  NPN IS=5.326791E-14 NF=0.992 BF=190 IKF=0.075 
+VAF=1050 ISE=2.1E-14 NE=1.385 NR=1.05 BR=16.3 IKR=1.8 VAR=99
+ISC=6.42E-12 NC=1.25 RB=0.5 RE=0.224 RC=0.134 CJC=8.5E-12  
+MJC=0.3966 VJC=0.4332 CJE=122E-12 TF=1.66E-9 TR=8E-6
*
*ZETEX  FCX649 Spice model   Last revision  17/7/90
*
.MODEL FCX649 NPN IS =3E-13 BF =225 VAF=80 IKF=2.8 ISE=1.1E-13 NE =1.37
+BR =110 VAR=28 NR =.972 IKR=0.8 ISC=6.5E-13 NC =1.372 RB =0.3 RE =.063
+RC =.07 CJE=325E-12 TF =1E-9 CJC=70E-12 TR =10E-9
*
*ZETEX  FMMT38B Darlington Spice Subcircuit   Last revision  4/9/90
*
.SUBCKT FMMT38B 1 2 3
*               C B E
Q1 1 2 4 SUB38B
Q2 1 4 3 SUB38B 12.75
*
.MODEL SUB38B NPN IS =1.1E-14 ISE=7.1E-15 NF =1.012 NE =1.4758 BF =147 IKF=.12
+BR =15 IKR=.05 RE =1.3 RC =.5 RB =.3 VAF=150 CJE=14.5E-12 CJC=4.14E-12
+VJC=.515 MJC=.26 TF =1.15E-9 TR =75E-9
.ENDS FMMT38B
*
*ZETEX  FMMT489  Spice model   Last revision 13/10/93
*
.MODEL FMMT489 NPN IS =1.04E-13  BF =195 IKF =1.9 VAF =160 
+              ISE=1.83E-14 NE =1.35 NR =1.00 BR =140 IKR=0.5 
+              VAR=30 ISC=6.00E-12 NC =1.5 RB =0.3 RE =0.065
+              RC =0.11 CJC=25.37E-12 MJC=0.3281 VJC=0.464 
+              CJE=122E-12 MJE=0.3412 VJE=0.7631 TF =0.86E-9 
+              TR =12.5E-9
*
*ZETEX  FMMT491A Spice model   Last revision 20/5/93
*
.MODEL FMMT491A NPN IS =3.05E-13 NF =1.0034 BF =650 IKF=0.8 VAF=165
+               ISE=8.0191E-14 NE =1.4126 NR =1.001 BR =120 IKR=0.6 VAR=69 
+               ISC=1.6E-12 NC =1.38 RB =0.065 RE =0.109 RC =0.075 
+               CJC=17.2E-12 MJC=0.3429 VJC=0.4298 CJE=96E-12 
+               TF =0.71E-9 TR =2.5E-9
*
*ZETEX  FMMT617 Spice model   Last revision 19/4/94
*
.MODEL FMMT617  NPN IS =5.92E-13 BF =500 IKF=5 VAF=34.6
+               ISE=1.27E-13 NE =1.425 NR =1 BR =280 IKR=2 VAR=12.25 
+               ISC=6.138E-13 NC =1.46 RB =0.1 RE =0.025 RC =0.017 
+               CJC=76E-12 MJC=0.2981 VJC=0.4414 CJE=230E-12 
+               MJE=0.3569 VJE=0.7042 TF =1.12E-9 TR =2.15E-9
*
*ZETEX  FMMT618 Spice model   Last revision 8/7/93
*
.MODEL FMMT618  NPN IS =5.611E-13 NF =1.0022 BF =480 IKF=4.6 VAF=51
+               ISE=1.73E-13 NE =1.4 NR =1.0002 BR =200 IKR=3 VAR=25 
+               ISC=7.3152E-13 NC =1.47 RB =0.032 RE =0.027 RC =0.025 
+               CJC=59E-12 MJC=0.2651 VJC=0.3051 CJE=216E-12 
+               TF =0.95E-9 TR =2.25E-9
*
*ZETEX  FMMT619 Spice model   Last revision 8/7/93
*
.MODEL FMMT619  NPN IS =5.8032E-13 NF =1.0027 BF =485 IKF=2.2 VAF=84
+               ISE=1.5933E-13 NE =1.4148 NR =1.0006 BR =110 IKR=1.4 
+               VAR=51 ISC=5E-12 NC =1.45 RB =0.042 RE =0.033 
+               RC =0.0375 CJC=40E-12 MJC=0.3708 VJC=0.4347 CJE=217E-12 
+               TF =0.78E-9 TR =9E-9
*
*ZETEX  FMMT624 Spice model   Last revision 12/7/93
*
.MODEL FMMT624  NPN IS =6.855E-13 NF =1.0037 BF =540 IKF=0.95 VAF=231
+               ISE=2.23E-13 NE =1.4195 NR =1.0024 BR =100 IKR=2 
+               VAR=61 ISC=3E-12 NC =1.2276 RB =0.036 RE =0.065 
+               RC =0.1 CJC=28E-12 MJC=0.4348 VJC=0.4934 CJE=207E-12 
+               TF =0.85E-9 TR =49E-9
*
*ZETEX  FMMT625 Spice model   Last revision 13/7/93
*
.MODEL FMMT625  NPN IS =6.2024E-13 NF =1.0037 BF =450 IKF=0.6 VAF=428
+               ISE=2.3242E-13 NE =1.4689 NR =1.0033 BR =250 IKR=1.7 
+               VAR=73 ISC=7.66E-13 NC =1.1546 RB =0.036 RE =0.090 
+               RC =0.143 CJC=24.5E-12 MJC=0.4246 VJC=0.4425 CJE=210E-12 
+               TF =0.99E-9 TR =60E-9
*
*ZETEX  FMMT918 Spice model   Last revision 9/90
*
.MODEL FMMT918 NPN IS =1.73E-13 BF =200 VAF=90 IKF=8.8E-3 ISE=241E-12 NE =1.701
+BR =3.124 VAR=9.7 NR =.9705 IKR=.02 ISC=8.31E-13 NC =1.112 RB =17 RE =2.13
+RC =30 CJE=2.27E-12 TF =.2E-9 CJC=1.2E-12 TR =1E-9 VJC=.415 MJC=.145
*
*ZETEX  FMMT5179 Spice model   Last revision 1/11/93
*
.MODEL FMMT5179 NPN IS=5.6E-16  BF=133 IKF=2.5E-2 VAF=40
+              ISE=6.367E-15 NE=1.75 NR=0.99 BR=8 IKR=1E-2 VAR=6 
+              ISC=1E-15 NC=1.167 RB=5 RE=0.65 RC=1.8
+              CJC=1.197E-12 MJC=0.2588 VJC=0.5617 CJE=1.012E-12 
+              MJE=0.4496 VJE=1.195 RBM=0.5 IRB=5E-4
*              TF=6E-11 TR=40.5E-9 ITF=2.5 XTF=1000
*
*ZETEX  FMMTA20 Spice model     Last revision  4/90
*
.MODEL FMMTA20 NPN IS =1.8E-14 ISE=5.0E-14 NF =.9955 NE =1.46 BF =400 BR =35.5
+IKF=.14 IKR=.03 ISC=1.72E-13 NC =1.27 NR =1.005 RB =.56 RE =.6 RC =.25 VAF=80
+VAR=12.5 CJE=13E-12 TF =.64E-9 CJC=4E-12 TR =50.72E-9 VJC=.54 MJC=.33
*
*ZETEX  FMMTH10 Spice model   Last revision 1/11/93
*
.MODEL FMMTH10 NPN IS =5.6E-16  BF =133 IKF=2.5E-2 VAF=40
+              ISE=6.367E-15 NE =1.75 NR =0.99 BR =8 IKR=1E-2 VAR=6 
+              ISC=1E-15 NC =1.167 RB =5 RE =0.65 RC =1.8
+              CJC=1.197E-12 MJC=0.2588 VJC=0.5617 CJE=1.012E-12 
+              MJE=0.4496 VJE=1.195 RBM =0.5 IRB =5E-4
*              TF =6E-11 TR =40.5E-9 ITF =2.5 XTF =1000
*
*ZETEX  FZT604  Darlington Spice Subcircuit    Last revision 27/8/91
*
.SUBCKT FZT604 1 2 3
*              C B E
Q1 1 2 4 SUB605
Q2 1 4 3 SUB605 3.46
*
.MODEL SUB605 NPN IS=4.8E-14 BF=170 VAF=542 NF=1.0039 IKF=0.2 ISE=1.5E-14
+NE=1.55 BR=12 VAR=20 NR=1.007 IKR=0.35 ISC=7.486E-14 NC=1.0984 RB=0.17 RE=0.3
+RC=0.14 CJE=81E-12 CJC=10.8E-12 VJC=0.85 MJC=0.41 TF=1.024E-9 TR=700E-9
.ENDS FZT604
*
*ZETEX  FZT605  Darlington Spice Subcircuit    Last revision 27/8/91
*
.SUBCKT FZT605 1 2 3
*              C B E
Q1 1 2 4 SUB605
Q2 1 4 3 SUB605 3.46
*
.MODEL SUB605 NPN IS=4.8E-14 BF=170 VAF=542 NF=1.0039 IKF=0.2 ISE=1.5E-14
+NE=1.55 BR=12 VAR=20 NR=1.007 IKR=0.35 ISC=7.486E-14 NC=1.0984 RB=0.17 RE=0.3
+RC=0.14 CJE=81E-12 CJC=10.8E-12 VJC=0.85 MJC=0.41 TF=1.024E-9 TR=700E-9
.ENDS FZT605
*
*ZETEX  FZT649 Spice model   Last revision  17/7/90
*
.MODEL FZT649 NPN IS =3E-13 BF =225 VAF=80 IKF=2.8 ISE=1.1E-13 NE =1.37
+BR =110 VAR=28 NR =.972 IKR=0.8 ISC=6.5E-13 NC =1.372 RB =0.3 RE =.063
+RC =.07 CJE=325E-12 TF =1E-9 CJC=70E-12 TR =10E-9
*
*ZETEX  FZT651 Spice model   Last revision  16/1/91
*
.MODEL FZT651 NPN IS =2.218E-13 NF =.9956 BF =230 IKF=2 VAF=100 ISE=2.9E-14
+NE =1.35 NR =.995 BR =56 IKR=1 VAR=30 ISC=2.971E-13 NC =1.321 RB =.04
+RE =.075 RC =.069 CJC=51E-12 MJC=.42 VJC=.595 CJE=318E-12 TF =.77E-9
+TR =27E-9
*
*ZETEX  FZT657 Spice model   Last revision   30/11/90
*
.MODEL FZT657 NPN IS =1.8805E-13 NF =1.0027 BF =120 VAF=1400 IKF=.22
+ISE=2.1E-14 NE =1.28 BR =8.3 VAR=50 NR =1.005 IKR=1.1 ISC=5E-13 NC =1.8
+RB =.1 RE =.095 RC =.146 CJE=370E-12 TF =1.77E-9 CJC=24E-12 MJC=.48 VJC=.525
+TR =800E-9
*
*   ZETEX   FZT658   Spice model   Last revision 13/4/92
*
.MODEL FZT658  NPN IS=2.2993E-13 NF=1.00036 BF=170 IKF=0.165 
+VAF=1367 ISE=6.1417E-14 NE=1.3904 NR=1.00173 BR=13 IKR=0.85 
+VAR=59 ISC=9.1896E-15 NC=1.0316 RB=0.08 RE=0.136 RC=0.181  
+CJC=22.5E-12 MJC=0.44 VJC=0.425 CJE=330E-12 TF=2.08E-9 TR=230E-9
*
*
*ZETEX   FZT688B  Spice model   Last revision 8/11/90
*
.MODEL FZT688B NPN IS =1.09E-12 NF =0.9935 BF =1180 IKF=5.2 VAF=25
+ISE=1.3E-13 NE =1.35 NR =0.992 BR =790 IKR=.5 VAR=5 ISC=0.174E-12
+NC =1.399 RB =.3 RE =.036 RC =.034 CJC=104E-12 MJC=.29 VJC=.46
+CJE=280E-12 TF =.93E-9 TR =1.05E-9
*
*
*ZETEX  FZT689B Spice model   Last revision 11/9/90
*
.MODEL FZT689B NPN IS =1.8E-12 NF =0.994 BF =1850 IKF=3.2 VAF=24
+ISE=.218E-12 NE =1.345 NR =0.996 BR =370 IKR=.8 VAR=4 ISC=0.36E-12
+NC =1.26 RB =.2 RE =.035 RC =.036 CJC=74E-12 MJC=.35 VJC=.485
+CJE=248E-12 TF =0.72E-9 TR =2.07E-9
*
*
*ZETEX  FZT690B Spice model  Last revision 18/11/90
*
.MODEL FZT690B NPN IS =2.505E-12 NF =1.0058 BF =1360 IKF=1.3 VAF=35
+ISE=.24E-12 NE =1.38 NR =1.001 BR =125 IKR=1 VAR=8 ISC=.435E-12
+NC =1.213 RB =.2 RE =.043 RC =.04 CJC=54.3E-12 MJC=.475 VJC=.765
+CJE=247E-12 TF =.851E-9 TR =15.7E-9
*Note: This model may be inaccurate for collector currents above 2A.
*
*
*ZETEX  FZT692B Spice model    Last revision  31/10/90
*
.MODEL FZT692B NPN IS =1.87E-12 NF =.9983 BF =1400 IKF=0.73 VAF=29
+ISE=.21E-12 NE =1.378 NR =.997 BR =68 IKR=.55 VAR=12 ISC=.44E-12
+NC =1.14 RB =.2 RE =.05 RC =.048 CJC=42.5E-12 MJC=.475 VJC=.625
+CJE=233E-12 TF =.77E-9 TR =39E-9
*Note: This model may be inaccurate for collector currents above 1.5A.
*
*
*ZETEX  FZT694B Spice model    Last revision  1/11/90
*
.MODEL FZT694B NPN IS =1.59E-12 NF =1.001 BF =1009 IKF=0.26 VAF=45
+ISE=.253E-12 NE =1.445 NR =1 BR =40 IKR=1 VAR=30 ISC=0.326E-12
+NC =1.075 RB =0.2 RE =0.065 RC =0.075 CJC=35.5E-12 MJC=.465
+VJC=.515 CJE=258E-12 TF =.763E-9 TR =130E-9
*Note: This model may be inaccurate for collector currents above 0.6A.
*
*
*ZETEX   FZT696B Spice model    Last revision  5/11/90
*
.MODEL FZT696B NPN IS =.98476E-12 NF =.999 BF =705 IKF=.145 VAF=235
+ISE=8.1E-14 NE =1.36 NR =1.002 BR =20 IKR=.8 VAR=26 ISC=.66E-12
+NC =1.15 RB =.07 RE =.125 RC =.098 CJC=25.4E-12 MJC=.47 VJC=.445
+CJC=270E-12 TF =1.301E-9 TR =690E-9
*Note: This model may be inaccurate for collector currents above 0.25A.
*
*
*
*ZETEX  MPS5179 Spice model   Last revision 1/11/93
*
.MODEL MPS5179 NPN IS=5.6E-16  BF=133 IKF=2.5E-2 VAF=40
+              ISE=6.367E-15 NE=1.75 NR=0.99 BR=8 IKR=1E-2 VAR=6 
+              ISC=1E-15 NC=1.167 RB=5 RE=0.65 RC=1.8
+              CJC=1.197E-12 MJC=0.2588 VJC=0.5617 CJE=1.012E-12 
+              MJE=0.4496 VJE=1.195 RBM=0.5 IRB=5E-4
*              TF=6E-11 TR=40.5E-9 ITF=2.5 XTF=1000
*
*ZETEX  MPSA20 Spice model     Last revision  4/90
*
.MODEL MPSA20 NPN IS =1.8E-14 ISE=5.0E-14 NF =.9955 NE =1.46 BF =400 BR =35.5
+IKF=.14 IKR=.03 ISC=1.72E-13 NC =1.27 NR =1.005 RB =.56 RE =.6 RC =.25 VAF=80
+VAR=12.5 CJE=13E-12 TF =.64E-9 CJC=4E-12 TR =50.72E-9 VJC=.54 MJC=.33
*
*ZETEX  MPSH10 Spice model   Last revision 1/11/93
*
.MODEL MPSH10  NPN IS=5.6E-16  BF=133 IKF=2.5E-2 VAF=40
+              ISE=6.367E-15 NE=1.75 NR=0.99 BR=8 IKR=1E-2 VAR=6 
+              ISC=1E-15 NC=1.167 RB=5 RE=0.65 RC=1.8
+              CJC=1.197E-12 MJC=0.2588 VJC=0.5617 CJE=1.012E-12 
+              MJE=0.4496 VJE=1.195 RBM=0.5 IRB=5E-4
*              TF=6E-11 TR=40.5E-9 ITF=2.5 XTF=1000
*
*ZETEX  ZTX107 Spice model     Last revision  4/90
*
.MODEL ZTX107 NPN IS =1.8E-14 ISE=5.0E-14 NF =.9955 NE =1.46 BF =400 BR =35.5
+IKF=.14 IKR=.03 ISC=1.72E-13 NC =1.27 NR =1.005 RB =.56 RE =.6 RC =.25 VAF=80
+VAR=12.5 CJE=13E-12 TF =.64E-9 CJC=4E-12 TR =50.72E-9 VJC=.54 MJC=.33
*
*ZETEX  ZTX107B Spice model     Last revision  4/90
*
.MODEL ZTX107B NPN IS =1.8E-14 ISE=5.0E-14 NF =.9955 NE =1.46 BF =400 BR =35.5
+IKF=.14 IKR=.03 ISC=1.72E-13 NC =1.27 NR =1.005 RB =.56 RE =.6 RC =.25 VAF=80
+VAR=12.5 CJE=13E-12 TF =.64E-9 CJC=4E-12 TR =50.72E-9 VJC=.54 MJC=.33
*
*ZETEX  ZTX108 Spice model     Last revision  4/90
*
.MODEL ZTX108 NPN IS =1.8E-14 ISE=5.0E-14 NF =.9955 NE =1.46 BF =400 BR =35.5
+IKF=.14 IKR=.03 ISC=1.72E-13 NC =1.27 NR =1.005 RB =.56 RE =.6 RC =.25 VAF=80
+VAR=12.5 CJE=13E-12 TF =.64E-9 CJC=4E-12 TR =50.72E-9 VJC=.54 MJC=.33
*
*ZETEX  ZTX108B Spice model     Last revision  4/90
*
.MODEL ZTX108B NPN IS =1.8E-14 ISE=5.0E-14 NF =.9955 NE =1.46 BF =400 BR =35.5
+IKF=.14 IKR=.03 ISC=1.72E-13 NC =1.27 NR =1.005 RB =.56 RE =.6 RC =.25 VAF=80
+VAR=12.5 CJE=13E-12 TF =.64E-9 CJC=4E-12 TR =50.72E-9 VJC=.54 MJC=.33
*
*ZETEX  ZTX109 Spice model     Last revision  4/90
*
.MODEL ZTX109 NPN IS =1.8E-14 ISE=5.0E-14 NF =.9955 NE =1.46 BF =400 BR =35.5
+IKF=.14 IKR=.03 ISC=1.72E-13 NC =1.27 NR =1.005 RB =.56 RE =.6 RC =.25 VAF=80
+VAR=12.5 CJE=13E-12 TF =.64E-9 CJC=4E-12 TR =50.72E-9 VJC=.54 MJC=.33
*
*ZETEX  ZTX109B Spice model     Last revision  4/90
*
.MODEL ZTX109B NPN IS =1.8E-14 ISE=5.0E-14 NF =.9955 NE =1.46 BF =400 BR =35.5
+IKF=.14 IKR=.03 ISC=1.72E-13 NC =1.27 NR =1.005 RB =.56 RE =.6 RC =.25 VAF=80
+VAR=12.5 CJE=13E-12 TF =.64E-9 CJC=4E-12 TR =50.72E-9 VJC=.54 MJC=.33
*
*
*ZETEX  ZTX237 Spice model     Last revision  4/90
*
.MODEL ZTX237 NPN IS =1.8E-14 ISE=5.0E-14 NF =.9955 NE =1.46 BF =400 BR =35.5
+IKF=.14 IKR=.03 ISC=1.72E-13 NC =1.27 NR =1.005 RB =.56 RE =.6 RC =.25 VAF=80
+VAR=12.5 CJE=13E-12 TF =.64E-9 CJC=4E-12 TR =50.72E-9 VJC=.54 MJC=.33
*
*ZETEX  ZTX237B Spice model     Last revision  4/90
*
.MODEL ZTX237B NPN IS =1.8E-14 ISE=5.0E-14 NF =.9955 NE =1.46 BF =400 BR =35.5
+IKF=.14 IKR=.03 ISC=1.72E-13 NC =1.27 NR =1.005 RB =.56 RE =.6 RC =.25 VAF=80
+VAR=12.5 CJE=13E-12 TF =.64E-9 CJC=4E-12 TR =50.72E-9 VJC=.54 MJC=.33
*
*ZETEX  ZTX238 Spice model     Last revision  4/90
*
.MODEL ZTX238 NPN IS =1.8E-14 ISE=5.0E-14 NF =.9955 NE =1.46 BF =400 BR =35.5
+IKF=.14 IKR=.03 ISC=1.72E-13 NC =1.27 NR =1.005 RB =.56 RE =.6 RC =.25 VAF=80
+VAR=12.5 CJE=13E-12 TF =.64E-9 CJC=4E-12 TR =50.72E-9 VJC=.54 MJC=.33
*
*ZETEX  ZTX238B Spice model     Last revision  4/90
*
.MODEL ZTX238B NPN IS =1.8E-14 ISE=5.0E-14 NF =.9955 NE =1.46 BF =400 BR =35.5
+IKF=.14 IKR=.03 ISC=1.72E-13 NC =1.27 NR =1.005 RB =.56 RE =.6 RC =.25 VAF=80
+VAR=12.5 CJE=13E-12 TF =.64E-9 CJC=4E-12 TR =50.72E-9 VJC=.54 MJC=.33
*
*ZETEX  ZTX239 Spice model     Last revision  4/90
*
.MODEL ZTX239 NPN IS =1.8E-14 ISE=5.0E-14 NF =.9955 NE =1.46 BF =400 BR =35.5
+IKF=.14 IKR=.03 ISC=1.72E-13 NC =1.27 NR =1.005 RB =.56 RE =.6 RC =.25 VAF=80
+VAR=12.5 CJE=13E-12 TF =.64E-9 CJC=4E-12 TR =50.72E-9 VJC=.54 MJC=.33
*
*ZETEX  ZTX239B Spice model     Last revision  4/90
*
.MODEL ZTX239B NPN IS =1.8E-14 ISE=5.0E-14 NF =.9955 NE =1.46 BF =400 BR =35.5
+IKF=.14 IKR=.03 ISC=1.72E-13 NC =1.27 NR =1.005 RB =.56 RE =.6 RC =.25 VAF=80
+VAR=12.5 CJE=13E-12 TF =.64E-9 CJC=4E-12 TR =50.72E-9 VJC=.54 MJC=.33
*
*ZETEX  ZTX320 Spice model   Last revision 9/90
*
.MODEL ZTX320 NPN IS =1.73E-13 BF =200 VAF=90 IKF=8.8E-3 ISE=241E-12 NE =1.701
+BR =3.124 VAR=9.7 NR =.9705 IKR=.02 ISC=8.31E-13 NC =1.112 RB =17 RE =2.13
+RC =30 CJE=2.27E-12 TF =.2E-9 CJC=1.2E-12 TR =1E-9 VJC=.415 MJC=.145
*
*ZETEX  ZTX321 Spice model   Last revision 9/90
*
.MODEL ZTX321 NPN IS =1.73E-13 BF =200 VAF=90 IKF=8.8E-3 ISE=241E-12 NE =1.701
+BR =3.124 VAR=9.7 NR =.9705 IKR=.02 ISC=8.31E-13 NC =1.112 RB =17 RE =2.13
+RC =30 CJE=2.27E-12 TF =.2E-9 CJC=1.2E-12 TR =1E-9 VJC=.415 MJC=.145
*
*ZETEX  ZTX325 Spice model   Last revision 9/3/93
*
.MODEL ZTX325 NPN IS =4.9E-16 NF =.993 BF =93 VAF=90 IKF=.055 
+             ISE=1E-14 NE =1.800 BR =25 VAR=6 NR =1.005 IKR=.01 
+             ISC=4.5E-15 NC =1.2 RB =7 RBM=.5 IRB=5E-4 RE =.5 
+             RC =2.0 TF =5E-11 XTF=100 ITF=2.3 TR =2.4E-8 
+             CJE=1.18E-12 CJC=1.54E-12 VJC=.559 MJC=.25 VJE=1.12 
+             MJE=.4
*
* NOTE: FOR RF OPERATION ADD PACKAGE INDUCTANCE OF 2.5E-9H PER LEAD
*
*
*ZETEX  ZTX327 Spice model   Last revision 24/2/94
*
.MODEL ZTX327 NPN IS=3.15E-15 BF=95 VAF=90 ISE=2.21E-13 NE=1.637
+   BR=8 VAR=10 NF=.9835 NR=.987 IKR=.12 ISC=7.12E-14 NC=1.27 RB=.5
+   RE=0.07 RC=.44 CJE=15E-12 TF=.13E-9 CJC=7.22E-12 TR=1.3E-7
+   VJC=.539 MJC=.4017 XTF=3 ITF=.35
*
+   IKF=.3           ;Use IKF=.3 and omit NK in 2G6 type Spices.
*   IKF=.85 NK=.75   ;Use IKF=.85 and NK=.75 in PSPICE V5.0 and on.
*
*
*ZETEX  ZTX337A Spice model     Last revision  4/90
*
.MODEL ZTX337A NPN IS =3.941445E-14 BF =175 VAF=109.45 NF =1 IKF=.8
+ISE=7.4025E-15 NE =1.3 BR =20.5 VAR=14.25 NR =.974 IKR=.1 ISC=3.157E-13
+NC =1.2 RB =1.1 RE =.1259 RC =.0539 CJE=63E-12 TF =.75E-9 CJC=15.8E-12
+TR =85E-9 VJC=.505 MJC=.39
*
*ZETEX  ZTX338A Spice model     Last revision  4/90
*
.MODEL ZTX338A NPN IS =3.941445E-14 BF =175 VAF=109.45 NF =1 IKF=.8
+ISE=7.4025E-15 NE =1.3 BR =20.5 VAR=14.25 NR =.974 IKR=.1 ISC=3.157E-13
+NC =1.2 RB =1.1 RE =.1259 RC =.0539 CJE=63E-12 TF =.75E-9 CJC=15.8E-12
+TR =85E-9 VJC=.505 MJC=.39
*
*ZETEX  ZTX360 Spice model   Last revision 14/12/92
*
.MODEL ZTX360 NPN IS =2.4508E-14 NF =1.003 BF =75 IKF=1.0 VAF=83
+             ISE=6.2319E-13 NE =1.4459 NR =1.018 BR =2.3 IKR=1.8 
+             VAR=37 ISC=1.2805E-8 NC =1.9335 RB =0.165 RE =0.126 
+             RC =0.200 CJC=18.24E-12 MJC=0.2654 VJC=0.1131 
+             CJE=62E-12 TF =0.54E-9 TR =200E-9
*
*ZETEX  ZTX450 Spice model     Last revision  4/90
*
.MODEL ZTX450 NPN IS =3.941445E-14 BF =175 VAF=109.45 NF =1 IKF=.8
+ISE=7.4025E-15 NE =1.3 BR =20.5 VAR=14.25 NR =.974 IKR=.1 ISC=3.157E-13
+NC =1.2 RB =1.1 RE =.1259 RC =.0539 CJE=63E-12 TF =.75E-9 CJC=15.8E-12
+TR =85E-9 VJC=.505 MJC=.39
*
*ZETEX  ZTX454 Spice model  Last revision   7/8/90
*
.MODEL ZTX454 NPN IS =5.6E-14 BF =260 VAF=660 NF =.992 IKF=.155 ISE=3.1E-14
+NE =1.2502 BR =24 VAR=6 NR =.999 IKR=.114 ISC=1.406E-13 NC =1.13 RB =1.1
+RE =.161 RC =.0339 CJC=11.6E-12 TF =.75E-9 CJE=53.5E-12 TR =100E-9 VJC=.505
+MJC=.455
*
*ZETEX  ZTX455 Spice model  Last revision   7/8/90
*
.MODEL ZTX455 NPN IS =5.6E-14 BF =260 VAF=660 NF =.992 IKF=.155 ISE=3.1E-14
+NE =1.2502 BR =24 VAR=6 NR =.999 IKR=.114 ISC=1.406E-13 NC =1.13 RB =1.1
+RE =.161 RC =.0339 CJC=11.6E-12 TF =.75E-9 CJE=53.5E-12 TR =100E-9 VJC=.505
+MJC=.455
*
*   ZETEX   ZTX458   Spice model   Last revision 19/3/92
*
.MODEL ZTX458  NPN IS=5.326791E-14 NF=0.992 BF=190 IKF=0.075 
+VAF=1050 ISE=2.1E-14 NE=1.385 NR=1.05 BR=16.3 IKR=1.8 VAR=99
+ISC=6.42E-12 NC=1.25 RB=0.5 RE=0.224 RC=0.134 CJC=8.5E-12  
+MJC=0.3966 VJC=0.4332 CJE=122E-12 TF=1.66E-9 TR=8E-6
*
*ZETEX  ZTX601B  Darlington Spice Subcircuit    Last revision 9/5/94
*
.SUBCKT ZTX601B 1 2 3
*               C B E
Q1 1 2 4 SUB601B
Q2 1 4 3 SUB601B 2.74
*
.MODEL SUB601B NPN IS=8.354E-14 BF=130 VAF=18.3 IKF=0.2 ISE=2E-13
+NE=1.45 BR=2 VAR=6.5 NR=1 IKR=0.2 ISC=6.138E-13 NC=1.46 RB=0.5 RE=0.25
+RC=0.3 CJE=83.7E-12 VJE=0.6868 MJE=0.3362 CJC=8.6E-12 VJC=0.3679 MJC=0.3607 
+TF=1E-9 TR=1800E-9
.ENDS ZTX601B
*
*
*ZETEX  ZTX604  Darlington Spice Subcircuit    Last revision 27/8/91
*
.SUBCKT ZTX604 1 2 3
*              C B E
Q1 1 2 4 SUB605
Q2 1 4 3 SUB605 3.46
*
.MODEL SUB605 NPN IS=4.8E-14 BF=170 VAF=542 NF=1.0039 IKF=0.2 ISE=1.5E-14
+NE=1.55 BR=12 VAR=20 NR=1.007 IKR=0.35 ISC=7.486E-14 NC=1.0984 RB=0.17 RE=0.3
+RC=0.14 CJE=81E-12 CJC=10.8E-12 VJC=0.85 MJC=0.41 TF=1.024E-9 TR=700E-9
.ENDS ZTX604
*
*ZETEX  ZTX605  Darlington Spice Subcircuit    Last revision 24/6/93
*
.SUBCKT ZTX605 1 2 3
*              C B E
Q1 1 2 4 SUB605
Q2 1 4 3 SUB605 3.46
*
.MODEL SUB605 NPN IS=4.8E-14 BF=170 VAF=542 NF=1.0039 IKF=0.2 ISE=1.5E-14
+NE=1.55 BR=12 VAR=20 NR=1.007 IKR=0.35 ISC=7.486E-14 NC=1.0984 RB=0.17 RE=0.3
+RC=0.14 CJE=81E-12 CJC=10.8E-12 VJC=0.58 MJC=0.41 TF=1.024E-9 TR=700E-9
.ENDS ZTX605
*
*
*ZETEX  ZTX614 Spice model   Last revision 17/12/92
*
.SUBCKT ZTX614 1 2 3
*              C B E
Q1 1 2 4 SUB614
Q2 1 4 3 SUB614 5.39
*
.MODEL SUB614 NPN IS =1.575E-14 NF =1.00 BF =280 IKF=0.08 VAF=284 
+             ISE=5.8853E-15 NE =1.3517 NR =1.0469 BR =11 IKR=0.2 
+             VAR=13 ISC=5.3795E-14 NC =1.257 RB =0.22 RE =0.375 
+             RC =0.40 CJC=3.6E-12 MJC=0.3393 VJC=0.4127 
+             CJE=23.7E-12 TF =1.73E-9 TR =260E-9
*
*
.ENDS ZTX614

*ZETEX  ZTX618 Spice model   Last revision 8/7/93
*
.MODEL ZTX618  NPN IS =5.611E-13 NF =1.0022 BF =480 IKF=4.6 VAF=51
+               ISE=1.73E-13 NE =1.4 NR =1.0002 BR =200 IKR=3 VAR=25 
+               ISC=7.3152E-13 NC =1.47 RB =0.032 RE =0.027 RC =0.025 
+               CJC=59E-12 MJC=0.2651 VJC=0.3051 CJE=216E-12 
+               TF =0.95E-9 TR =2.25E-9
*
*
*ZETEX  ZTX649 Spice model   Last revision  17/7/90
*
.MODEL ZTX649 NPN IS =3E-13 BF =225 VAF=80 IKF=2.8 ISE=1.1E-13 NE =1.37
+BR =110 VAR=28 NR =.972 IKR=0.8 ISC=6.5E-13 NC =1.372 RB =0.3 RE =.063
+RC =.07 CJE=325E-12 TF =1E-9 CJC=70E-12 TR =10E-9
*