.SUBCKT bsv81 10 20 30
M1 10 20 30 30 NMOS
.MODEL NMOS NMOS
+ LEVEL=3
+ W=1E-3
+ L=1E-6
+ UO=380.8
+ VTO=-1.035
+ NFS=1E12
+ TOX=1E-7
+ NSUB=1.153E15
+ NSS=0
+ VMAX=1E6
+ RS=3
+ RD=3
+ RSH=0
+ CBD=0
+ CBS=0
+ CJ=0.001396
+ MJ=0.3936
+ CJSW=0
+ MJSW=0.33
+ IS=1E-14
+ PB=0.5983
+ FC=0.5
+ XJ=0
+ LD=0
+ DELTA=0
+ THETA=1E-6
+ ETA=0.009307
+ KAPPA=2.226
.ENDS
