*COPYRIGHT OF ANALOG DEVICES
*
* AD744 SPICE Macro-model       		3/91, Rev. B
*                                               JLW / PMI
*
* Revision History:
*     Corrected VOS to be 0.1mV
*
*
* This version of the AD744 model simulates the typical
* parameters that correspond to those in the device data
* sheet.
*
*
* Copyright 1991 by Analog Devices, Inc.
*
* Refer to "README.DOC" file for License Statement.  Use of this model
* indicates your acceptance with the terms and provisions in the License Statement.
*
* connections: non-inverting input
*               |  inverting input
*               |  |  positive power supply
*               |  |  |  negative power supply
*               |  |  |  |  output
*               |  |  |  |  |   compensation
*               |  |  |  |  |  / \
.subckt AD744  11 14 10 16 13 12 15
* 
VOS 14 7 DC 0.1E-3
EC 8 0 (13,0) 1
C1 5 6 0.33E-12
GB 12 0 (15,0) 1.67E3 
RD1 5 16 16E3
RD2 6 16 16E3
ISS 10 1 DC 100E-6
GCM 0 15 (0,1) 1.76E-9
GA 15 0 (6,5) 2.33E-3
CCE 12 15 0.001E-12
RE 1 0 2.5E6
RGM 15 0 1.76E3
VC 10 2 DC 2.8
VE 9 16 DC 2.8
RO1 12 13 25
CE 1 0 1E-12
RO2 0 12 30
RS1 1 3 5.77E3
RS2 1 4 5.77E3
CCI 15 12 40E-12
RP 16 10 8.5E3
J1 5 11 3 FET
J2 6 7 4 FET
DC 13 2 DIODE
DE 9 13 DIODE
DP 16 10 DIODE
D1 8 12 DIODE
D2 12 8 DIODE
.MODEL DIODE D()
.MODEL FET PJF(VTO=-1 BETA=1E-3 IS=30E-12)
.ENDS
* AD744A SPICE Macro-model       		1/91, Rev. A
*								JLW / PMI
*
* This version of the AD744 model simulates the worst case
* parameters of the 'A' grade. The worst case parameters 
* used correspond to those in the device data sheet.
*
*
* Copyright 1991 by Analog Devices, Inc.
*
* Refer to "README.DOC" file for License Statement.  Use of this model
* indicates your acceptance with the terms and provisions in the License Statement.
*
* connections: non-inverting input
*               |  inverting input
*               |  |  positive power supply
*               |  |  |  negative power supply
*               |  |  |  |  output
*               |  |  |  |  |   compensation
*               |  |  |  |  |  / \
.subckt AD744A 11 14 10 16 13 12 15
* 
VOS 14 7 DC 1E-3
EC 8 0 (13,0) 1
C1 5 6 0.33E-12
GB 12 0 (15,0) 1.67E3 
RD1 5 16 16E3
RD2 6 16 16E3
ISS 10 1 DC 100E-6
GCM 0 15 (0,1) 1.76E-9
GA 15 0 (6,5) 1.4E-3
CCE 12 15 0.001E-12
RE 1 0 2.5E6
RGM 15 0 1.44E3
VC 10 2 DC 2.8
VE 9 16 DC 3.1
RO1 12 13 25
CE 1 0 1E-12
RO2 0 12 30
RS1 1 3 5.77E3
RS2 1 4 5.77E3
CCI 15 12 40E-12
RP 16 10 6.13E3
J1 5 11 3 FET
J2 6 7 4 FET
DC 13 2 DIODE
DE 9 13 DIODE
DP 16 10 DIODE
D1 8 12 DIODE
D2 12 8 DIODE
IOS 14 11 25E-12
.MODEL DIODE D()
.MODEL FET PJF(VTO=-1 BETA=1E-3 IS=100E-12)
.ENDS
* AD744B SPICE Macro-model       		1/91, Rev. A
*								JLW / PMI
*
* This version of the AD744 model simulates the worst case
* parameters of the 'B' grade. The worst case parameters 
* used correspond to those in the device data sheet.
*
*
* Copyright 1991 by Analog Devices, Inc.
*
* Refer to "README.DOC" file for License Statement.  Use of this model
* indicates your acceptance with the terms and provisions in the License Statement.
*
* connections:  non-inverting input
*                |  inverting input
*                |  |  positive power supply
*                |  |  |  negative power supply
*                |  |  |  |  output
*                |  |  |  |  |   compensation
*                |  |  |  |  |  / \
.subckt AD744B  11 14 10 16 13 12 15
* 
VOS 14 7 DC 0.5E-3
EC 8 0 (13,0) 1
C1 5 6 0.33E-12
GB 12 0 (15,0) 1.67E3 
RD1 5 16 16E3
RD2 6 16 16E3
ISS 10 1 DC 100E-6
GCM 0 15 (0,1) 1.76E-9
GA 15 0 (6,5) 1.47E-3
CCE 12 15 0.001E-12
RE 1 0 2.5E6
RGM 15 0 1.7E3
VC 10 2 DC 2.8
VE 9 16 DC 3.1
RO1 12 13 25
CE 1 0 1E-12
RO2 0 12 30
RS1 1 3 5.77E3
RS2 1 4 5.77E3
CCI 15 12 40E-12
RP 16 10 7.7E3
J1 5 11 3 FET
J2 6 7 4 FET
DC 13 2 DIODE
DE 9 13 DIODE
DP 16 10 DIODE
D1 8 12 DIODE
D2 12 8 DIODE
IOS 14 11 25E-12
.MODEL DIODE D()
.MODEL FET PJF(VTO=-1 BETA=1E-3 IS=100E-12)
.ENDS
* AD744C SPICE Macro-model       		1/91, Rev. A
*								JLW / PMI
*
* This version of the AD744 model simulates the worst case
* parameters of the 'C' grade. The worst case parameters 
* used correspond to those in the device data sheet.
*
*
* Copyright 1991 by Analog Devices, Inc.
*
* Refer to "README.DOC" file for License Statement.  Use of this model
* indicates your acceptance with the terms and provisions in the License Statement.
*
* connections:  non-inverting input
*                |  inverting input
*                |  |  positive power supply
*                |  |  |  negative power supply
*                |  |  |  |  output
*                |  |  |  |  |   compensation
*                |  |  |  |  |  / \
.subckt AD744C  11 14 10 16 13 12 15
* 
VOS 14 7 DC 0.25E-3
EC 8 0 (13,0) 1
C1 5 6 0.33E-12
GB 12 0 (15,0) 1.67E3 
RD1 5 16 16E3
RD2 6 16 16E3
ISS 10 1 DC 100E-6
GCM 0 15 (0,1) 1.76E-9
GA 15 0 (6,5) 1.47E-3
CCE 12 15 0.001E-12
RE 1 0 2.5E6
RGM 15 0 1.7E3
VC 10 2 DC 2.8
VE 9 16 DC 3.1
RO1 12 13 25
CE 1 0 1E-12
RO2 0 12 30
RS1 1 3 5.77E3
RS2 1 4 5.77E3
CCI 15 12 40E-12
RP 16 10 7.7E3
J1 5 11 3 FET
J2 6 7 4 FET
DC 13 2 DIODE
DE 9 13 DIODE
DP 16 10 DIODE
D1 8 12 DIODE
D2 12 8 DIODE
IOS 14 11 10E-12
.MODEL DIODE D()
.MODEL FET PJF(VTO=-1 BETA=1E-3 IS=50E-12)
.ENDS
* AD744J SPICE Macro-model       		1/91, Rev. A
*								JLW / PMI
*
* This version of the AD744 model simulates the worst case
* parameters of the 'J' grade. The worst case parameters 
* used correspond to those in the device data sheet.
*
*
* Copyright 1991 by Analog Devices, Inc.
*
* Refer to "README.DOC" file for License Statement.  Use of this model
* indicates your acceptance with the terms and provisions in the License Statement.
*
* connections: non-inverting input
*               |  inverting input
*               |  |  positive power supply
*               |  |  |  negative power supply
*               |  |  |  |  output
*               |  |  |  |  |   compensation
*               |  |  |  |  |  / \
.subckt AD744J 11 14 10 16 13 12 15
* 
VOS 14 7 DC 1E-3
EC 8 0 (13,0) 1
C1 5 6 0.33E-12
GB 12 0 (15,0) 1.67E3 
RD1 5 16 16E3
RD2 6 16 16E3
ISS 10 1 DC 100E-6
GCM 0 15 (0,1) 1.76E-9
GA 15 0 (6,5) 1.4E-3
CCE 12 15 0.001E-12
RE 1 0 2.5E6
RGM 15 0 1.44E3
VC 10 2 DC 2.8
VE 9 16 DC 3.1
RO1 12 13 25
CE 1 0 1E-12
RO2 0 12 30
RS1 1 3 5.77E3
RS2 1 4 5.77E3
CCI 15 12 40E-12
RP 16 10 6.13E3
J1 5 11 3 FET
J2 6 7 4 FET
DC 13 2 DIODE
DE 9 13 DIODE
DP 16 10 DIODE
D1 8 12 DIODE
D2 12 8 DIODE
IOS 14 11 25E-12
.MODEL DIODE D()
.MODEL FET PJF(VTO=-1 BETA=1E-3 IS=100E-12)
.ENDS
* AD744K SPICE Macro-model       		1/91, Rev. A
*								JLW / PMI
*
* This version of the AD744 model simulates the worst case
* parameters of the 'K' grade. The worst case parameters 
* used correspond to those in the device data sheet.
*
*
* Copyright 1991 by Analog Devices, Inc.
*
* Refer to "README.DOC" file for License Statement.  Use of this model
* indicates your acceptance with the terms and provisions in the License Statement.
*
* connections:  non-inverting input
*                |  inverting input
*                |  |  positive power supply
*                |  |  |  negative power supply
*                |  |  |  |  output
*                |  |  |  |  |   compensation
*                |  |  |  |  |  / \
.subckt AD744K  11 14 10 16 13 12 15
* 
VOS 14 7 DC 0.5E-3
EC 8 0 (13,0) 1
C1 5 6 0.33E-12
GB 12 0 (15,0) 1.67E3 
RD1 5 16 16E3
RD2 6 16 16E3
ISS 10 1 DC 100E-6
GCM 0 15 (0,1) 1.76E-9
GA 15 0 (6,5) 1.47E-3
CCE 12 15 0.001E-12
RE 1 0 2.5E6
RGM 15 0 1.7E3
VC 10 2 DC 2.8
VE 9 16 DC 3.1
RO1 12 13 25
CE 1 0 1E-12
RO2 0 12 30
RS1 1 3 5.77E3
RS2 1 4 5.77E3
CCI 15 12 40E-12
RP 16 10 7.7E3
J1 5 11 3 FET
J2 6 7 4 FET
DC 13 2 DIODE
DE 9 13 DIODE
DP 16 10 DIODE
D1 8 12 DIODE
D2 12 8 DIODE
IOS 14 11 25E-12
.MODEL DIODE D()
.MODEL FET PJF(VTO=-1 BETA=1E-3 IS=100E-12)
.ENDS
* AD744S SPICE Macro-model       		1/91, Rev. A
*								JLW / PMI
*
* This version of the AD744 model simulates the worst case
* parameters of the 'S' grade. The worst case parameters 
* used correspond to those in the device data sheet.
*
*
* Copyright 1991 by Analog Devices, Inc.
*
* Refer to "README.DOC" file for License Statement.  Use of this model
* indicates your acceptance with the terms and provisions in the License Statement.
*
* connections: non-inverting input
*               |  inverting input
*               |  |  positive power supply
*               |  |  |  negative power supply
*               |  |  |  |  output
*               |  |  |  |  |   compensation
*               |  |  |  |  |  / \
.subckt AD744S 11 14 10 16 13 12 15
* 
VOS 14 7 DC 1E-3
EC 8 0 (13,0) 1
C1 5 6 0.33E-12
GB 12 0 (15,0) 1.67E3 
RD1 5 16 16E3
RD2 6 16 16E3
ISS 10 1 DC 100E-6
GCM 0 15 (0,1) 1.76E-9
GA 15 0 (6,5) 1.4E-3
CCE 12 15 0.001E-12
RE 1 0 2.5E6
RGM 15 0 1.44E3
VC 10 2 DC 2.8
VE 9 16 DC 3.1
RO1 12 13 25
CE 1 0 1E-12
RO2 0 12 30
RS1 1 3 5.77E3
RS2 1 4 5.77E3
CCI 15 12 40E-12
RP 16 10 6.13E3
J1 5 11 3 FET
J2 6 7 4 FET
DC 13 2 DIODE
DE 9 13 DIODE
DP 16 10 DIODE
D1 8 12 DIODE
D2 12 8 DIODE
IOS 14 11 25E-12
.MODEL DIODE D()
.MODEL FET PJF(VTO=-1 BETA=1E-3 IS=100E-12)
.ENDS
* AD744T SPICE Macro-model       		1/91, Rev. A
*								JLW / PMI
*
* This version of the AD744 model simulates the worst case
* parameters of the 'T' grade. The worst case parameters 
* used correspond to those in the device data sheet.
*
*
* Copyright 1991 by Analog Devices, Inc.
*
* Refer to "README.DOC" file for License Statement.  Use of this model
* indicates your acceptance with the terms and provisions in the License Statement.
*
* connections:  non-inverting input
*                |  inverting input
*                |  |  positive power supply
*                |  |  |  negative power supply
*                |  |  |  |  output
*                |  |  |  |  |   compensation
*                |  |  |  |  |  / \
.subckt AD744T  11 14 10 16 13 12 15
* 
VOS 14 7 DC 0.5E-3
EC 8 0 (13,0) 1
C1 5 6 0.33E-12
GB 12 0 (15,0) 1.67E3 
RD1 5 16 16E3
RD2 6 16 16E3
ISS 10 1 DC 100E-6
GCM 0 15 (0,1) 1.76E-9
GA 15 0 (6,5) 1.47E-3
CCE 12 15 0.001E-12
RE 1 0 2.5E6
RGM 15 0 1.7E3
VC 10 2 DC 2.8
VE 9 16 DC 3.1
RO1 12 13 25
CE 1 0 1E-12
RO2 0 12 30
RS1 1 3 5.77E3
RS2 1 4 5.77E3
CCI 15 12 40E-12
RP 16 10 7.7E3
J1 5 11 3 FET
J2 6 7 4 FET
DC 13 2 DIODE
DE 9 13 DIODE
DP 16 10 DIODE
D1 8 12 DIODE
D2 12 8 DIODE
IOS 14 11 25E-12
.MODEL DIODE D()
.MODEL FET PJF(VTO=-1 BETA=1E-3 IS=100E-12)
.ENDS
* AD797 SPICE Macro-model 10/92, Rev. A
* AAG / PMI
*
* Copyright 1992 by Analog Devices, Inc.
*
* Refer to "README.DOC" file for License Statement.  Use of this model
* indicates your acceptance with the terms and provisions in the License
* Statement.
*
* Node assignments
*             non-inverting input
*             | inverting input
*             | | positive supply
*             | | |  negative supply
*             | | |  |  output
*             | | |  |  |  decompensation
*             | | |  |  |  |
.SUBCKT AD797 1 2 99 50 38 14
*
* INPUT STAGE & POLE AT 500 MHz
*
IOS 1 2 DC 50E-9
CIND 1 2 20E-12
CINC1 1 98 5E-12
GRCM1 1 98 POLY(2) 1 31 2 31 (0,5E-9,5E-9)
GN1 0 1 44 0 1E-3
CINC2 2 98 5E-12
GRCM2 2 98 POLY(2) 1 31 2 31 (0,5E-9,5E-9)
GN2 0 2 47 0 1E-3
EOS 9 3 POLY(1) 22 31 25E-6 1
EN 3 1 41 0 0.1
D1 2 9 DX
D2 9 2 DX
Q1 5 2 4 QX
Q2 6 9 4 QX
R3 97 5 0.5172
R4 97 6 0.5172
C2 5 6 3.0772E-10
I1 4 51 100E-3
EPOS 97 0 99 0 1
ENEG 51 0 50 0 1
*
* INPUT VOLTAGE NOISE GENERATOR
*
VN1 40 0 DC 2
DN1 40 41 DEN
DN2 41 42 DEN
VN2 0 42 DC 2
*
* +INPUT CURRENT NOISE GENERATOR
*
VN3 43 0 DC 2
DN3 43 44 DIN
DN4 44 45 DIN
VN4 0 45 DC 2
*
* -INPUT CURRENT NOISE GENERATOR
*
VN5 46 0 DC 2
DN5 46 47 DIN
DN6 47 48 DIN
VN6 0 48 DC 2
*
* GAIN STAGE & DOMINANT POLE AT 7.33 Hz
*
EREF 98 0 31 0 1
G1 98 10 5 6 10
R7 10 98 10
E1 99 11 POLY(1) 99 31 -2.294 1
D3 10 11 DX
E2 12 50 POLY(1) 31 50 -2.294 1
D4 12 10 DX
G2 98 13 10 31 1E-3
R8 13 98 10
G3 99 14 98 13 34.558E-3
G4 99 16 98 98 34.558E-3
G5 14 15 15 14 20E-3
G6 16 17 17 14 20E-3
R9 15 18 400
R10 17 18 400
E3 18 98 16 98 1
R11 16 98 4.3406E8
C5 16 98 50E-12
V1 99 19 DC 2.2542
D5 16 19 DX
V2 20 50 DC 2.2542
D6 20 16 DX
RDC 14 98 1E15
*
* COMMON-MODE GAIN NETWORK WITH ZERO AT 1.35 kHz
*
ECM 21 98 POLY(2) 1 31 2 31 (0,158.11E-3,158.11E-3)
RCM1 21 22 1
CCM 21 22 1.1789E-4
RCM2 22 98 1E-6
*
* POLE-ZERO PAIR AT 3.9 MHz/10 MHz
*
GPZ 98 23 16 98 1
RPZ1 23 98 1
RPZ2 23 24 0.63934
CPZ 24 98 24.893E-9
*
* NEGATIVE ZERO AT -300 MHz
*
ENZ 25 98 23 31 1E6
RNZ1 25 26 1
CNZ 25 26 -5.3052E-10
RNZ2 26 98 1E-6
*
* POLE AT 300 MHz
*
GP2 98 27 26 31 1
RP2 27 98 1
CP2 27 98 5.3052E-10
*
* POLE AT 500 MHz
*
GP3 98 28 27 31 1
RP3 28 98 1
CP3 28 98 3.1831E-10
*
* POLE AT 500 MHz
*
GP4 98 29 28 31 1
RP4 29 98 1
CP4 29 98 3.1831E-10
*
* OUTPUT STAGE
*
VW 29 30 DC 0
RDC1 99 31 23.25E3
CDC 31 0 1E-6
RDC2 31 50 23.25E3
GO1 98 32 37 30 25E-3
DO1 32 33 DX
VO1 33 98 DC 0
DO2 34 32 DX
VO2 98 34 DC 0
FDC 99 50 POLY(2) VO1 VO2 7.56E-3 1 1
VSC1 35 37 0.945
DSC1 30 35 DX
VSC2 37 36 0.745
DSC2 36 30 DX
FSC1 37 0 VSC1 1
FSC2 0 37 VSC2 1
GO3 37 99 99 30 25E-3
GO4 50 37 30 50 25E-3
RO1 99 37 40
RO2 37 50 40
LO 37 38 10E-9
*
* MODELS USED
*
.MODEL QX NPN(BF=2E5)
.MODEL DX D(IS=1E-15)
.MODEL DEN D(IS=1E-12 RS=6.3708E3 AF=1 KF=1.59E-15)
.MODEL DIN D(IS=1E-12 RS=474 AF=1 KF=7.816E-15)
.ENDS AD797
* AD797A SPICE Macro-model 10/92, Rev. A
* AAG / PMI
*
* This version of the AD797 op amp model simulates the worst case
* parameters of the 'A' grade.  The worst case parameters used
* correspond to those in the data sheet.
*
* Copyright 1992 by Analog Devices, Inc.
*
* Refer to "README.DOC" file for License Statement.  Use of this model
* indicates your acceptance with the terms and provisions in the License
* Statement.
*
* Node assignments
*              non-inverting input
*              | inverting input
*              | | positive supply
*              | | |  negative supply
*              | | |  |  output
*              | | |  |  |  decompensation
*              | | |  |  |  |
.SUBCKT AD797A 1 2 99 50 38 14
*
* INPUT STAGE & POLE AT 500 MHz
*
IOS 1 2 DC 200E-9
CIND 1 2 20E-12
CINC1 1 98 5E-12
GRCM1 1 98 POLY(2) 1 31 2 31 (0,5E-9,5E-9)
GN1 0 1 44 0 1E-3
CINC2 2 98 5E-12
GRCM2 2 98 POLY(2) 1 31 2 31 (0,5E-9,5E-9)
GN2 0 2 47 0 1E-3
EOS 9 3 POLY(1) 22 31 80E-6 1
EN 3 1 41 0 0.1
D1 2 9 DX
D2 9 2 DX
Q1 5 2 4 QX
Q2 6 9 4 QX
R3 97 5 0.5172
R4 97 6 0.5172
C2 5 6 3.0772E-10
I1 4 51 100E-3
EPOS 97 0 99 0 1
ENEG 51 0 50 0 1
*
* INPUT VOLTAGE NOISE GENERATOR
*
VN1 40 0 DC 2
DN1 40 41 DEN
DN2 41 42 DEN
VN2 0 42 DC 2
*
* +INPUT CURRENT NOISE GENERATOR
*
VN3 43 0 DC 2
DN3 43 44 DIN
DN4 44 45 DIN
VN4 0 45 DC 2
*
* -INPUT CURRENT NOISE GENERATOR
*
VN5 46 0 DC 2
DN5 46 47 DIN
DN6 47 48 DIN
VN6 0 48 DC 2
*
* GAIN STAGE & DOMINANT POLE AT 110 Hz
*
EREF 98 0 31 0 1
G1 98 10 5 6 10
R7 10 98 10
E1 99 11 POLY(1) 99 31 -1.209 1
D3 10 11 DX
E2 12 50 POLY(1) 31 50 -1.209 1
D4 12 10 DX
G2 98 13 10 31 1E-3
R8 13 98 10
G3 99 14 98 13 34.558E-3
G4 99 16 98 98 34.558E-3
G5 14 15 15 14 20E-3
G6 16 17 17 14 20E-3
R9 15 18 400
R10 17 18 400
E3 18 98 16 98 1
R11 16 98 2.8937E7
C5 16 98 50E-12
V1 99 19 DC 4.3208
D5 16 19 DX
V2 20 50 DC 4.3208
D6 20 16 DX
RDC 14 98 1E15
*
* COMMON-MODE GAIN NETWORK WITH ZERO AT 8.52 kHz
*
ECM 21 98 POLY(2) 1 31 2 31 (0,997.63E-3,997.63E-3)
RCM1 21 22 1
CCM 21 22 18.685E-6
RCM2 22 98 1E-6
*
* POLE-ZERO PAIR AT 3.9 MHz/10 MHz
*
GPZ 98 23 16 98 1
RPZ1 23 98 1
RPZ2 23 24 0.63934
CPZ 24 98 24.893E-9
*
* NEGATIVE ZERO AT -300 MHz
*
ENZ 25 98 23 31 1E6
RNZ1 25 26 1
CNZ 25 26 -5.3052E-10
RNZ2 26 98 1E-6
*
* POLE AT 300 MHz
*
GP2 98 27 26 31 1
RP2 27 98 1
CP2 27 98 5.3052E-10
*
* POLE AT 500 MHz
*
GP3 98 28 27 31 1
RP3 28 98 1
CP3 28 98 3.1831E-10
*
* POLE AT 500 MHz
*
GP4 98 29 28 31 1
RP4 29 98 1
CP4 29 98 3.1831E-10
*
* OUTPUT STAGE
*
VW 29 30 DC 0
RDC1 99 31 23.25E3
CDC 31 0 1E-6
RDC2 31 50 23.25E3
GO1 98 32 37 30 25E-3
DO1 32 33 DX
VO1 33 98 DC 0
DO2 34 32 DX
VO2 98 34 DC 0
FDC 99 50 POLY(2) VO1 VO2 9.86E-3 1 1
VSC1 35 37 0.945
DSC1 30 35 DX
VSC2 37 36 0.745
DSC2 36 30 DX
FSC1 37 0 VSC1 1
FSC2 0 37 VSC2 1
GO3 37 99 99 30 25E-3
GO4 50 37 30 50 25E-3
RO1 99 37 40
RO2 37 50 40
LO 37 38 10E-9
*
* MODELS USED
*
.MODEL QX NPN(BF=3.3333E4)
.MODEL DX D(IS=1E-15)
.MODEL DEN D(IS=1E-12 RS=6.3708E3 AF=1 KF=1.59E-15)
.MODEL DIN D(IS=1E-12 RS=474 AF=1 KF=7.816E-15)
.ENDS AD797A
* AD797B SPICE Macro-model 10/92, Rev. A
* AAG / PMI
*
* This version of the AD797 op amp model simulates the worst case
* parameters of the 'B' grade.  The worst case parameters used
* correspond to those in the data sheet.
*
* Copyright 1992 by Analog Devices, Inc.
*
* Refer to "README.DOC" file for License Statement.  Use of this model
* indicates your acceptance with the terms and provisions in the License
* Statement.
*
* Node assignments
*              non-inverting input
*              | inverting input
*              | | positive supply
*              | | |  negative supply
*              | | |  |  output
*              | | |  |  |  decompensation
*              | | |  |  |  |
.SUBCKT AD797B 1 2 99 50 38 14
*
* INPUT STAGE & POLE AT 500 MHz
*
IOS 1 2 DC 100E-9
CIND 1 2 20E-12
CINC1 1 98 5E-12
GRCM1 1 98 POLY(2) 1 31 2 31 (0,5E-9,5E-9)
GN1 0 1 44 0 1E-3
CINC2 2 98 5E-12
GRCM2 2 98 POLY(2) 1 31 2 31 (0,5E-9,5E-9)
GN2 0 2 47 0 1E-3
EOS 9 3 POLY(1) 22 31 40E-6 1
EN 3 1 41 0 0.1
D1 2 9 DX
D2 9 2 DX
Q1 5 2 4 QX
Q2 6 9 4 QX
R3 97 5 0.5172
R4 97 6 0.5172
C2 5 6 3.0772E-10
I1 4 51 100E-3
EPOS 97 0 99 0 1
ENEG 51 0 50 0 1
*
* INPUT VOLTAGE NOISE GENERATOR
*
VN1 40 0 DC 2
DN1 40 41 DEN
DN2 41 42 DEN
VN2 0 42 DC 2
*
* +INPUT CURRENT NOISE GENERATOR
*
VN3 43 0 DC 2
DN3 43 44 DIN
DN4 44 45 DIN
VN4 0 45 DC 2
*
* -INPUT CURRENT NOISE GENERATOR
*
VN5 46 0 DC 2
DN5 46 47 DIN
DN6 47 48 DIN
VN6 0 48 DC 2
*
* GAIN STAGE & DOMINANT POLE AT 55 Hz
*
EREF 98 0 31 0 1
G1 98 10 5 6 10
R7 10 98 10
E1 99 11 POLY(1) 99 31 -1.209 1
D3 10 11 DX
E2 12 50 POLY(1) 31 50 -1.209 1
D4 12 10 DX
G2 98 13 10 31 1E-3
R8 13 98 10
G3 99 14 98 13 34.558E-3
G4 99 16 98 98 34.558E-3
G5 14 15 15 14 20E-3
G6 16 17 17 14 20E-3
R9 15 18 400
R10 17 18 400
E3 18 98 16 98 1
R11 16 98 5.7875E7
C5 16 98 50E-12
V1 99 19 DC 4.3208
D5 16 19 DX
V2 20 50 DC 4.3208
D6 20 16 DX
RDC 14 98 1E15
*
* COMMON-MODE GAIN NETWORK WITH ZERO AT 4.3 kHz
*
ECM 21 98 POLY(2) 1 31 2 31 (0,0.5,0.5)
RCM1 21 22 1
CCM 21 22 37.281E-6
RCM2 22 98 1E-6
*
* POLE-ZERO PAIR AT 3.9 MHz/10 MHz
*
GPZ 98 23 16 98 1
RPZ1 23 98 1
RPZ2 23 24 0.63934
CPZ 24 98 24.893E-9
*
* NEGATIVE ZERO AT -300 MHz
*
ENZ 25 98 23 31 1E6
RNZ1 25 26 1
CNZ 25 26 -5.3052E-10
RNZ2 26 98 1E-6
*
* POLE AT 300 MHz
*
GP2 98 27 26 31 1
RP2 27 98 1
CP2 27 98 5.3052E-10
*
* POLE AT 500 MHz
*
GP3 98 28 27 31 1
RP3 28 98 1
CP3 28 98 3.1831E-10
*
* POLE AT 500 MHz
*
GP4 98 29 28 31 1
RP4 29 98 1
CP4 29 98 3.1831E-10
*
* OUTPUT STAGE
*
VW 29 30 DC 0
RDC1 99 31 23.25E3
CDC 31 0 1E-6
RDC2 31 50 23.25E3
GO1 98 32 37 30 25E-3
DO1 32 33 DX
VO1 33 98 DC 0
DO2 34 32 DX
VO2 98 34 DC 0
FDC 99 50 POLY(2) VO1 VO2 9.86E-3 1 1
VSC1 35 37 0.945
DSC1 30 35 DX
VSC2 37 36 0.745
DSC2 36 30 DX
FSC1 37 0 VSC1 1
FSC2 0 37 VSC2 1
GO3 37 99 99 30 25E-3
GO4 50 37 30 50 25E-3
RO1 99 37 40
RO2 37 50 40
LO 37 38 10E-9
*
* MODELS USED
*
.MODEL QX NPN(BF=5.5556E4)
.MODEL DX D(IS=1E-15)
.MODEL DEN D(IS=1E-12 RS=6.3708E3 AF=1 KF=1.59E-15)
.MODEL DIN D(IS=1E-12 RS=474 AF=1 KF=7.816E-15)
.ENDS AD797B
* AD797S SPICE Macro-model 10/92, Rev. A
* AAG / PMI
*
* This version of the AD797 op amp model simulates the worst case
* parameters of the 'S' grade.  The worst case parameters used
* correspond to those in the data sheet.
*
* Copyright 1992 by Analog Devices, Inc.
*
* Refer to "README.DOC" file for License Statement.  Use of this model
* indicates your acceptance with the terms and provisions in the License
* Statement.
*
* Node assignments
*              non-inverting input
*              | inverting input
*              | | positive supply
*              | | |  negative supply
*              | | |  |  output
*              | | |  |  |  decompensation
*              | | |  |  |  |
.SUBCKT AD797S 1 2 99 50 38 14
*
* INPUT STAGE & POLE AT 500 MHz
*
IOS 1 2 DC 200E-9
CIND 1 2 20E-12
CINC1 1 98 5E-12
GRCM1 1 98 POLY(2) 1 31 2 31 (0,5E-9,5E-9)
GN1 0 1 44 0 1E-3
CINC2 2 98 5E-12
GRCM2 2 98 POLY(2) 1 31 2 31 (0,5E-9,5E-9)
GN2 0 2 47 0 1E-3
EOS 9 3 POLY(1) 22 31 80E-6 1
EN 3 1 41 0 0.1
D1 2 9 DX
D2 9 2 DX
Q1 5 2 4 QX
Q2 6 9 4 QX
R3 97 5 0.5172
R4 97 6 0.5172
C2 5 6 3.0772E-10
I1 4 51 100E-3
EPOS 97 0 99 0 1
ENEG 51 0 50 0 1
*
* INPUT VOLTAGE NOISE GENERATOR
*
VN1 40 0 DC 2
DN1 40 41 DEN
DN2 41 42 DEN
VN2 0 42 DC 2
*
* +INPUT CURRENT NOISE GENERATOR
*
VN3 43 0 DC 2
DN3 43 44 DIN
DN4 44 45 DIN
VN4 0 45 DC 2
*
* -INPUT CURRENT NOISE GENERATOR
*
VN5 46 0 DC 2
DN5 46 47 DIN
DN6 47 48 DIN
VN6 0 48 DC 2
*
* GAIN STAGE & DOMINANT POLE AT 110 Hz
*
EREF 98 0 31 0 1
G1 98 10 5 6 10
R7 10 98 10
E1 99 11 POLY(1) 99 31 -1.209 1
D3 10 11 DX
E2 12 50 POLY(1) 31 50 -1.209 1
D4 12 10 DX
G2 98 13 10 31 1E-3
R8 13 98 10
G3 99 14 98 13 34.558E-3
G4 99 16 98 98 34.558E-3
G5 14 15 15 14 20E-3
G6 16 17 17 14 20E-3
R9 15 18 400
R10 17 18 400
E3 18 98 16 98 1
R11 16 98 2.8937E7
C5 16 98 50E-12
V1 99 19 DC 4.3208
D5 16 19 DX
V2 20 50 DC 4.3208
D6 20 16 DX
RDC 14 98 1E15
*
* COMMON-MODE GAIN NETWORK WITH ZERO AT 8.52 kHz
*
ECM 21 98 POLY(2) 1 31 2 31 (0,997.63E-3,997.63E-3)
RCM1 21 22 1
CCM 21 22 18.685E-6
RCM2 22 98 1E-6
*
* POLE-ZERO PAIR AT 3.9 MHz/10 MHz
*
GPZ 98 23 16 98 1
RPZ1 23 98 1
RPZ2 23 24 0.63934
CPZ 24 98 24.893E-9
*
* NEGATIVE ZERO AT -300 MHz
*
ENZ 25 98 23 31 1E6
RNZ1 25 26 1
CNZ 25 26 -5.3052E-10
RNZ2 26 98 1E-6
*
* POLE AT 300 MHz
*
GP2 98 27 26 31 1
RP2 27 98 1
CP2 27 98 5.3052E-10
*
* POLE AT 500 MHz
*
GP3 98 28 27 31 1
RP3 28 98 1
CP3 28 98 3.1831E-10
*
* POLE AT 500 MHz
*
GP4 98 29 28 31 1
RP4 29 98 1
CP4 29 98 3.1831E-10
*
* OUTPUT STAGE
*
VW 29 30 DC 0
RDC1 99 31 23.25E3
CDC 31 0 1E-6
RDC2 31 50 23.25E3
GO1 98 32 37 30 25E-3
DO1 32 33 DX
VO1 33 98 DC 0
DO2 34 32 DX
VO2 98 34 DC 0
FDC 99 50 POLY(2) VO1 VO2 9.86E-3 1 1
VSC1 35 37 0.945
DSC1 30 35 DX
VSC2 37 36 0.745
DSC2 36 30 DX
FSC1 37 0 VSC1 1
FSC2 0 37 VSC2 1
GO3 37 99 99 30 25E-3
GO4 50 37 30 50 25E-3
RO1 99 37 40
RO2 37 50 40
LO 37 38 10E-9
*
* MODELS USED
*
.MODEL QX NPN(BF=3.3333E4)
.MODEL DX D(IS=1E-15)
.MODEL DEN D(IS=1E-12 RS=6.3708E3 AF=1 KF=1.59E-15)
.MODEL DIN D(IS=1E-12 RS=474 AF=1 KF=7.816E-15)
.ENDS AD797S
* AD810 SPICE Macro-model               12/93, Rev. A
*                                       ARG / PMI
*
* Copyright 1990 by Analog Devices, Inc.
*
* This model was developed using the +-5V specifications.
*
* Refer to "README.DOC" file for License Statement.
* Use of this model indicates your acceptance with
* the terms and provisions in the License Statement.
*
* Node assignments
*              non-inverting input
*              | inverting input
*              | | positive supply
*              | | |  negative supply
*              | | |  |  output
*              | | |  |  |  DISABLE pin
*              | | |  |  |  |     
.SUBCKT AD810  1 2 99 50 41 33
*
* INPUT STAGE
*
R1   99  8     680
R2   10 50     680
V1   99  9     0.5
D1   9   8     DX
V2   11 50     0.5
D2   10 11     DX
F1   99  5     VD2  1
F2   4  50     VD2  1
Q1   50  3  5  QP
Q2   99  3  4  QN
Q3   8   5  2  QN
Q4   10  4  2  QP
R3   99  5     0.4E8
R4   50  4     0.4E8
*
* INPUT ERROR SOURCES
*
GB1  1   99    POLY(1)  1  22  2E-6  0.1E-6
GB2  2   99    POLY(1)  1  22  0.7E-6  0.1E-6
VOS  3   1     1.5E-3
CS1  99  2     0.75E-12
CS2  99  1     2E-12
*
* TRANSCONDUCTANCE STAGE
*
EREF 98  0     22  0  1
R5   12 98     1.2E6
C3   12 98     4.15E-12
G1   98 12     99  8  1.471E-3
G2   12 98     10 50  1.471E-3
V3   99 13     2.5
V4   14 50     2.5
D3   12 13     DX
D4   14 12     DX
*
* POLE AT 90 MHZ
*
R6   21 98    1E6
C4   21 98    1.768E-15
G3   98 21    12 22  1E-6
*
* OUTPUT STAGE
*
FSY  99 50    POLY(1)  VD2  1.677E-3  3.33
FSY1 99  0    V7  1
FSY2 0  50    V8  1
R9   22 99    40.625E3
R10  22 50    40.625E3
E1   25 98    21 22 1
H1   26 25    POLY(1) VD3 0.7 10E3
H2   25 27    POLY(1) VD3 0.7 10E3
RH1  40 50    1E10
R7   28 40    10
R8   40 29    10
D7   26 28    DX
D8   29 27    DX
VS   40 41    DC 0
CL   41 50    10E-12
V5   23 40    0.5
V6   40 24    0.5
D5   21 23    DX
D6   24 21    DX
F10  98 70    VS 1
D9   70 71    DX
D10  72 70    DX
V7   71 98    DC 0
V8   98 72    DC 0
*
* DISABLE FUNCTION
*
VD1  99 31    DC 1.8
RD1  31 32    35E3
RD2  33 99    1E12
DD1  32 33    DX
FD   98 34    POLY(1) VD1 0.8E-3 -18.0203
DD3  36 34    DX
DD2  34 35    DX
VD2  37 98    DC 0
VD3  38 98    DC 0
RD3  35 37    1E3
RD4  36 38    1E3
CD1  34 98    10E-12
*
* MODELS USED
*
.MODEL QN   NPN(BF=200 IS=1E-15 VAF=51.723)
.MODEL QP   PNP(BF=200 IS=1E-15 VAF=51.723)
.MODEL DX   D(IS=1E-15)
.ENDS AD810* AD810A SPICE Macro-model              12/93, Rev. A
*                                       ARG / PMI
*
* This version of the AD810 model simulates the worst-case 
* parameters of the 'A' grade.  The worst-case parameters
* used correspond to those in the data sheet.  This model 
* was developed using the +-5V specifications.
*
* Copyright 1990 by Analog Devices, Inc.
*
* Refer to "README.DOC" file for License Statement.
* Use of this model indicates your acceptance with
* the terms and provisions in the License Statement.
*
* Node assignments
*              non-inverting input
*              | inverting input
*              | | positive supply
*              | | |  negative supply
*              | | |  |  output
*              | | |  |  |  DISABLE pin
*              | | |  |  |  |     
.SUBCKT AD810A 1 2 99 50 41 33
*
* INPUT STAGE
*
R1   99   8    680
R2   10   50   680
V1   99   9    0.5
D1   9    8    DX
V2   11   50   0.5
D2   10   11   DX
F1   99   5    VD2 1
F2   4    50   VD2 1
Q1   50   3    5    QP
Q2   99   3    4    QN
Q3   8    5    2    QN
Q4   10   4    2    QP
R3   99   5    0.4E8
R4   50   4    0.4E8
*
* INPUT ERROR SOURCES
*
GB1  1    99   POLY(1) (1,22) 7.5E-6 0.1E-6
GB2  2    99   POLY(1) (1,22) 5E-6 0.1E-6
EOS  3    1    POLY(1) (17,22) 6E-3 25.119E-3
CS1  99   2    0.75E-12
CS2  99   1    2E-12
*
* TRANSCONDUCTANCE STAGE
*
EREF 98   0    (22,0) 1
R5   12   98   0.3E6
C3   12   98   4.15E-12
G1   98   12   (99,8) 1.471E-3
G2   12   98   (10,50) 1.471E-3
V3   99   13   3
V4   14   50   3
D3   12   13   DX
D4   14   12   DX
*
* COMMON MODE STAGE WITH ZERO AT 2.512MHZ
*
E2   16   98   (1,22) 1
R12  16   17   10
R13  17   98   1
C6   16   17   12.672E-9
*
* POLE AT 90MHZ
*
R6   21   98   1E6
C4   21   98   1.768E-15
G3   98   21   (12,22) 1E-6
*
* OUTPUT STAGE
*
FSY  99   50   POLY(1) VD2 2.177E-3 2.707
FSY1 99   0    V7 1
FSY2 0    50   V8 1
R9   22   99   40.625E3
R10  22   50   40.625E3
E1   25   98   21 22 1
H1   26   25   POLY(1) VD3 0.7 10E3
H2   25   27   POLY(1) VD3 0.7 10E3
RH1  40   50   1E10
R7   28   40   10
R8   40   29   10
D7   26   28   DX
D8   29   27   DX
VS   40   41   DC 0
CL   41   50   10E-12
V5   23   40   0.5
V6   40   24   0.5
D5   21   23   DX
D6   24   21   DX
F10  98   70   VS  1
D9   70   71   DX
D10  72   70   DX
V7   71   98   DC 0
V8   98   72   DC 0
*
* DISABLE FUNCTION
*
VD1  99   31   DC 1.8
RD1  31   32   35E3
RD2  33   99   1E12
DD1  32   33   DX
FD   98   34   POLY(1) VD1 0.8E-3 -18.0203
DD3  36   34   DX
DD2  34   35   DX
VD2  37   98   DC 0
VD3  38   98   DC 0
RD3  35   37   1E3
RD4  36   38   1E3
CD1  34   98   10E-12
*
* MODELS USED
*
.MODEL QN NPN(BF=200 IS=1E-15)
.MODEL QP PNP(BF=200 IS=1E-15)
.MODEL DX D(IS=1E-15)
.ENDS AD810A* AD810S SPICE Macro-model              12/93, Rev. A
*                                       ARG / PMI
*
* This version of the AD810 model simulates the worst-case 
* parameters of the 'S' grade.  The worst-case parameters
* used correspond to those in the data sheet. This model
* was developed using the +-5V specifications.
*
* Copyright 1990 by Analog Devices, Inc.
*
* Refer to "README.DOC" file for License Statement.
* Use of this model indicates your acceptance with
* the terms and provisions in the License Statement.
*
* Node assignments
*              non-inverting input
*              | inverting input
*              | | positive supply
*              | | |  negative supply
*              | | |  |  output
*              | | |  |  |  DISABLE pin
*              | | |  |  |  |     
.SUBCKT AD810S 1 2 99 50 41 33
*
* INPUT STAGE
*
R1   99   8    680
R2   10   50   680
V1   99   9    0.5
D1   9    8    DX
V2   11   50   0.5
D2   10   11   DX
F1   99   5    VD2 1
F2   4    50   VD2 1
Q1   50   3    5    QP
Q2   99   3    4    QN
Q3   8    5    2    QN
Q4   10   4    2    QP
R3   99   5    0.4E8
R4   50   4    0.4E8
*
* INPUT ERROR SOURCES
*
GB1  1    99   POLY(1) (1,22) 7.5E-6 0.1E-6
GB2  2    99   POLY(1) (1,22) 5E-6 0.1E-6
EOS  3    1    POLY(1) (17,22) 6E-3 25.119E-3
CS1  99   2    0.75E-12
CS2  99   1    2E-12
*
* TRANSCONDUCTANCE STAGE
*
EREF 98   0    (22,0) 1
R5   12   98   0.3E6
C3   12   98   4.15E-12
G1   98   12   (99,8) 1.471E-3
G2   12   98   (10,50) 1.471E-3
V3   99   13   3
V4   14   50   3
D3   12   13   DX
D4   14   12   DX
*
* COMMON MODE STAGE WITH ZERO AT 2.512MHZ
*
E2   16   98   (1,22) 1
R12  16   17   10
R13  17   98   1
C6   16   17   6.336E-9
*
* POLE AT 90MHZ
*
R6   21   98   1E6
C4   21   98   1.768E-15
G3   98   21   (12,22) 1E-6
*
* OUTPUT STAGE
*
FSY  99   50   POLY(1) VD2 2.177E-3 2.707
FSY1 99   0    V7 1
FSY2 0    50   V8 1
R9   22   99   40.625E3
R10  22   50   40.625E3
E1   25   98   21 22 1
H1   26   25   POLY(1) VD3 0.7 10E3
H2   25   27   POLY(1) VD3 0.7 10E3
RH1  40   50   1E10
R7   28   40   10
R8   40   29   10
D7   26   28   DX
D8   29   27   DX
VS   40   41   DC 0
CL   41   50   10E-12
V5   23   40   0.5
V6   40   24   0.5
D5   21   23   DX
D6   24   21   DX
F10  98   70   VS  1
D9   70   71   DX
D10  72   70   DX
V7   71   98   DC 0
V8   98   72   DC 0
*
* DISABLE FUNCTION
*
VD1  99   31   DC 1.8
RD1  31   32   35E3
RD2  33   99   1E12
DD1  32   33   DX
FD   98   34   POLY(1) VD1 0.8E-3 -18.0203
DD3  36   34   DX
DD2  34   35   DX
VD2  37   98   DC 0
VD3  38   98   DC 0
RD3  35   37   1E3
RD4  36   38   1E3
CD1  34   98   10E-12
*