* COPYRIGHT OF COMLINEAR (A NATIONAL SEMICONDUCTOR COMPANY)
*
* CLC400 Macromodel Net List--- Subcircuit Format (MMD.06)
*
*   This is a Wideband, Low Gain Monolithic Current Feedback
*   Op Amp with Fast Settling, (.05% in 12nS), Low Power and
*   an Input Offset Adjustment Pin.
*
* Version 1, Rev. B, Date 03-16-92, By KEB
*
* Connections: Non-Inverting Input
*              | Inverting Input
*              | | +Vcc
*              | | | -Vee
*              | | | | Output
*              | | | | | Offset voltage
*              | | | | | |
.SUBCKT CLC400 3 2 7 4 6 1
*
* DC BIAS MIRROR
*
R3 7 10 1.1K
R4 10 11 20.1K
R1 1 11 15.0K
R2 1 0 10.0M
R5 11 12 20.1K
R6 12 4 1.1K
*
G1 7 13 POLY(1) 7 10 0 2.62M
C1 13 0 1.46P
*
G2 19 4 POLY(1) 12 4 0 2.43M
C2 19 0 1.24P
*
* INPUT VOLTAGE BUFFER
*
E1 3 16 POLY(1) 37 0 0 1.76
C3 16 0 1.00P
*
R7 16 15 50.0
Q1 4 15 14 QINP
R9 14 13 50
R8 16 17 50.0
Q2 7 17 18 QINN
R10 18 19 50
*
G3 2 0 POLY(1) 36 0 0 9.10M
C14 2 0 2.5P
*
R14 2 24 50
Q3 23 20 24 QINN
R11 13 20 50.0
*
R15 2 25 50
Q4 26 21 25 QINP
R12 19 21 50.0
*
* CURRENT MIRROR GAIN BLOCKS
*
R13 7 22 445
V1 22 23 2.20
C5 23 0 447F
C6 23 30 221F
G4 7 30 POLY(1) 7 22 0 8.52M
D1 30 28 DX
V3 7 28 1.7
G6 7 31 POLY(1) 7 22 0 10.9M
*
R16 27 4 445
V2 26 27 2.00
C4 26 0 223F
C7 26 30 130F
G5 30 4 POLY(1) 27 4 0 8.76M
D2 29 30 DX
V4 29 4 1.7
G7 32 4 POLY(1) 27 4 0 10.8M
*
* OUTPUT STAGE AND COMPENSATION CAPACITORS
*
C9 30 0 651F
R17 30 0 57.7K
*
C8 23 31 1.33P
Q5 4 30 31 QOUTP1
C10 26 32 1.33P
Q6 7 30 32 QOUTN1
*
C11 31 0 2.48P
R18 31 33 100
Q7 7 33 34 QOUTN2
C13 32 0 2.21P
R19 32 35 100
Q8 4 35 34 QOUTP2
*
C12 34 0 1.00P
R20 34 6 8
*
* NOISE BLOCKS
*
R23 37 0 122
R24 37 0 122
*
R21 36 0 122
R22 36 0 122
*
* MODELS
*
.MODEL DX D TT=10N
*
.MODEL QINN NPN
+ IS =0.166F    BF =3.239E+02  NF =1.000E+00 VAF=8.457E+01
+ IKF=2.462E-02 ISE=2.956E-17  NE =1.197E+00 BR =3.719E+01
+ NR =1.000E+00 VAR=1.696E+00  IKR=3.964E-02 ISC=1.835E-19
+ NC =1.700E+00 RB =6.796E+01  IRB=0.000E+00 RBM=1.506E+01
+ RE =5.613E-01 RC =2.645E+01  CJE=1.588E-13 VJE=7.973E-01
+ MJE=4.950E-01 TF =1.948E-11  XTF=1.873E+01 VTF=2.825E+00
+ ITF=5.955E-02 PTF=0.000E+00  CJC=1.720E-13 VJC=8.046E-01
+ MJC=4.931E-01 XCJC=1.386E-01 TR =4.212E-10 CJS=3.938E-13
+ VJS=5.723E-01 MJS=4.105E-01  KF =2.00P     AF =1.000E+00
+ FC =9.765E-01
*
.MODEL QOUTN1 NPN
+ IS =7.822E-16 BF=3.239E+02   NF =1.000E+00 VAF=8.457E+01
+ IKF=9.079E-02 ISE=1.090E-16  NE =1.197E+00 BR =3.960E+01
+ NR =1.000E+00 VAR=1.696E+00  IKR=1.462E-01 ISC=5.656E-19
+ NC =1.700E+00 RB=1.843E+01   IRB=0.000E+00 RBM=4.083E+00
+ RE =1.522E-01 RC=6.141E+00   CJE=5.858E-13 VJE=7.973E-01
+ MJE=4.950E-01 TF=1.874E-11   XTF=1.873E+01 VTF=2.825E+00
+ ITF=2.196E-01 PTF=0.000E+00  CJC=5.143E-13 VJC=8.046E-01
+ MJC=4.931E-01 XCJC=1.709E-01 TR =1.069E-09 CJS=8.567E-13
+ VJS=5.723E-01 MJS=4.105E-01  KF =2.00P     AF =1.000E+00
+ FC =9.765E-01
*
.MODEL QOUTN2 NPN
+ IS =1.880E-15 BF=3.239E+02   NF =1.000E+00 VAF=8.457E+01
+ IKF=2.182E-01 ISE=2.620E-16  NE =1.197E+00 BR =3.971E+01
+ NR =1.000E+00 VAR=1.696E+00  IKR=3.513E-01 ISC=1.348E-18
+ NC =1.700E+00 RB=7.668E+00   IRB=0.000E+00 RBM=1.699E+00
+ RE =6.333E-02 RC=3.738E+00   CJE=1.408E-12 VJE=7.973E-01
+ MJE=4.950E-01 TF=1.871E-11   XTF=1.873E+01 VTF=2.825E+00
+ ITF=5.278E-01 PTF=0.000E+00  CJC=1.224E-12 VJC=8.046E-01
+ MJC=4.931E-01 XCJC=1.726E-01 TR =1.296E-09 CJS=1.496E-12
+ VJS=5.723E-01 MJS=4.105E-01  KF =2.00P     AF =1.000E+00
+ FC =9.765E-01
*
.MODEL QINP PNP
+ IS =0.166F    BF=7.165E+01   NF =1.000E+00 VAF=3.439E+01
+ IKF=1.882E-02 ISE=6.380E-16  NE =1.366E+00 BR =1.833E+01
+ NR =1.000E+00 VAR=1.805E+00  IKR=1.321E-01 ISC=3.666E-18
+ NC =1.634E+00 RB=2.876E+01   IRB=0.000E+00 RBM=7.568E+00
+ RE =6.118E-01 RC=3.739E+01   CJE=1.588E-13 VJE=7.975E-01
+ MJE=5.000E-01 TF=3.156E-11   XTF=5.386E+00 VTF=2.713E+00
+ ITF=5.084E-02 PTF=0.000E+00  CJC=2.725E-13 VJC=7.130E-01
+ MJC=4.200E-01 XCJC=1.385E-01 TR =7.500E-11 CJS=7.417E-13
+ VJS=6.691E-01 MJS=3.950E-01  KF =2.00P     AF =1.000E+00
+ FC =8.803E-01
*
.MODEL QOUTP1 PNP
+ IS =4.744E-16 BF=7.165E+01   NF =1.000E+00 VAF=3.439E+01
+ IKF=6.940E-02 ISE=2.353E-15  NE =1.366E+00 BR =1.948E+01
+ NR =1.000E+00 VAR=1.805E+00  IKR=4.873E-01 ISC=1.322E-17
+ NC =1.634E+00 RB=7.797E+00   IRB=0.000E+00 RBM=2.052E+00
+ RE =1.659E-01 RC=1.037E+01   CJE=5.858E-13 VJE=7.975E-01
+ MJE=5.000E-01 TF=3.073E-11   XTF=5.386E+00 VTF=2.713E+00
+ ITF=1.875E-01 PTF=0.000E+00  CJC=8.147E-13 VJC=7.130E-01
+ MJC=4.200E-01 XCJC=1.709E-01 TR =1.450E-10 CJS=1.364E-12
+ VJS=6.691E-01 MJS=3.950E-01  KF =2.00P     AF =1.000E+00
+ FC =8.803E-01
*
.MODEL QOUTP2 PNP
+ IS =1.140E-15 BF=7.165E+01   NF =1.000E+00 VAF=3.439E+01
+ IKF=1.668E-01 ISE=5.655E-15  NE =1.366E+00 BR =1.953E+01
+ NR =1.000E+00 VAR=1.805E+00  IKR=1.171E+00 ISC=3.173E-17
+ NC =1.634E+00 RB=3.245E+00   IRB=0.000E+00 RBM=8.539E-01
+ RE =6.902E-02 RC=6.213E+00   CJE=1.408E-12 VJE=7.975E-01
+ MJE=5.000E-01 TF=3.070E-11   XTF=5.386E+00 VTF=2.713E+00
+ ITF=4.506E-01 PTF=0.000E+00  CJC=1.939E-12 VJC=7.130E-01
+ MJC=4.200E-01 XCJC=1.726E-01 TR =1.850E-10 CJS=2.351E-12
+ VJS=6.691E-01 MJS=3.950E-01  KF =2.00P     AF =1.000E+00
+ FC =8.803E-01
*
.ENDS CLC400
* CLC407 Macromodel Net List--- Subcircuit Format (MMD.06)
*
*   This is a Low Cost, Low Power, 110MHz, Monolithic
*   Programmable Gain Buffer With Disable
*
* Version 1, Rev. A, Date 04-12-95, by KEB
*
* Connections: +IN (Non-Inverting Input)
*              | -IN (External Rg Contact)
*              | | +Vcc  
*              | | | -Vee
*              | | | | -Output
*              | | | | | Vdis_bar
*              | | | | | |
.SUBCKT CLC407 3 2 7 4 6 8
*
* DISABLE/BIAS BLOCK
*
R1 7 8 20.0K
C3 8 0 1.00P
R2 8 10 5.00K
Q1 7 10 15 QINN
R3 7 12 100
V1 12 13 1.50
Q2 13 14 15 QINN
D1 10 11 DDV
D2 11 10 DDV 0.11
R4 11 14 2.00K
R5 14 16 2.00K
R6 7 16 20.0K
R7 16 17 20.0K
C4 15 0 336F
I1 15 4 150U
C5 17 0 101F
V2 17 4 3.00
*
R8 7 20 20.0K
D3 20 21 DQ 1.88
G1 21 0 POLY(1) 7 12 0 10.0M
D4 22 21 DQ 1.88
Q3 22 20 7 QINP 3.00
I2 22 4 176U
R9 7 23 625
D5 23 22 DDV 0.28
C6 22 0 1.00P
*
C1 7 0 1.00P
C2 4 0 1.00P
G2 7 4 POLY(1) 7 23 0 4.13M
G3 7 30 POLY(1) 7 23 0 1.54M
C7 30 0 751F
G4 34 4 POLY(1) 7 23 0 1.46M
C8 34 0 751F
*
* INPUT STAGE
*
G5 3 0 POLY(3) 7 23 62 0 63 0 0 20.3U 1.00M 1.00M
C9 3 0 1.00P
E1 3 32 POLY(2) 60 0 61 0 -1.50M 1.00 1.00
D6 30 31 DQ 0.25
Q4 4 32 31 QINP
Q5 7 32 33 QINN
D7 33 34 DQ 0.25
G6 41 0 POLY(3) 7 23 64 0 65 0 0 36.4U 1.00M 1.00M
Q6 41 30 42 QINN
D8 42 43 DQ 0.25
C10 43 0 3.50P
R11 43 6 250
R12 43 2 250
R13 2 0 1.00G
D9 43 44 DQ 0.25
Q7 45 34 44 QINP
*
* GAIN STAGE
*
R10 7 40 550
C11 7 40 1.80P
V3 40 41 1.90
C12 41 48 580F
C13 41 51 430F
G7 7 48 POLY(2) 7 40 7 48 0 3.83M 208N
V4 7 47 750M
D10 51 47 DOR
G8 7 51 POLY(1) 7 40 0 9.03M
C14 51 0 950F
*
V5 45 46 1.90
R14 46 4 550
C15 46 4 1.80P
C16 45 48 505F
C17 45 50 270F
D11 49 48 DOR
V6 49 4 1.30
G9 48 4 POLY(2) 46 4 48 4 0 3.91M 2.14U
G10 50 4 POLY(1) 46 4 0 3.18M
C18 50 0 515F
*
* OUTPUT STAGE
*
C19 48 0 904F
Q8 7 48 50 QOUTN1
D12 51 52 DDV 1.67
Q9 4 50 52 QOUTP1
Q10 7 51 6 QOUTN2
C20 6 0 1.00P
C21 6 53 22.0F
E2 53 0 POLY(2) 3 0 7 23 0 1.00 0 0 -9.09
Q11 4 52 6 QOUTP2
*
* NOISE SOURCES
*
I3 61 60 DC 26.8U
D13 60 0 DN1
D14 0 61 DN1
*
I4 63 62 DC 56.9U
D15 62 0 DN2
D16 0 63 DN2
*
I5 65 64 DC 46.9U
D17 64 0 DN3
D18 0 65 DN3
*
* MODELS
*
.MODEL DDV D IS=0.287F N=2.00 RS=274M CJO=354F M=500M VJ=798M TT=30.4P
.MODEL DN1 D IS=0.166F KF=4.48F AF=1.00
.MODEL DN2 D IS=0.166F KF=20.6F AF=1.00
.MODEL DN3 D IS=0.166F KF=87.6F AF=1.00
.MODEL DOR D TT=100N
.MODEL DQ D IS=0.165F RS=561M CJO=159F M=495M VJ=797M TT=19.2P
*
.MODEL QINN NPN
+ IS =4.242E-17 BF =3.239E+02 NF =1.000E+00 VAF=2.115E+01
+ IKF=6.322E-03 ISE=7.591E-18 NE =1.197E+00 BR =3.355E+01
+ NR =1.000E+00 VAR=1.696E+00 IKR=1.018E-02 ISC=6.091E-20
+ NC =1.700E+00 RB =3.146E+02 IRB=0.000E+00 RBM=1.086E+02
+ RE =2.185E+00 RC =3.022E+01 CJE=4.079E-14 VJE=7.973E-01
+ MJE=4.950E-01 TF =2.078E-11 XTF=1.873E+01 VTF=2.825E+00
+ ITF=1.529E-02 CJC=5.906E-14 VJC=8.046E-01 MJC=4.931E-01
+ XCJC=1.04E-01 TR =1.620E-10 CJS=6.743E-13 MJS=0.000E+00
+ VJS=5.723E-01 FC =9.765E-01
*
.MODEL QOUTN1 NPN
+ IS =2.636E-16 BF =3.239E+02 NF =1.000E+00 VAF=8.457E+01
+ IKF=3.060E-02 ISE=3.674E-17 NE =1.197E+00 BR =3.868E+01
+ NR =1.000E+00 VAR=1.696E+00 IKR=4.928E-02 ISC=2.045E-19
+ NC =1.700E+00 RB =5.467E+01 IRB=0.000E+00 RBM=1.212E+01
+ RE =4.515E-01 RC =1.999E+01 CJE=1.974E-13 VJE=7.973E-01
+ MJE=4.950E-01 TF =1.901E-11 XTF=1.873E+01 VTF=2.825E+00
+ ITF=7.403E-02 CJC=1.883E-13 VJC=8.046E-01 MJC=4.931E-01
+ XCJC=1.57E-01 TR =5.184E-10 CJS=3.540E-13 VJS=5.723E-01
+ MJS=4.105E-01 FC =9.765E-01
*
.MODEL QOUTN2 NPN
+ IS =9.456E-16 BF =3.239E+02 NF =1.000E+00 VAF=8.457E+01
+ IKF=1.098E-01 ISE=1.318E-16 NE =1.197E+00 BR =3.989E+01
+ NR =1.000E+00 VAR=1.696E+00 IKR=1.767E-01 ISC=6.688E-19
+ NC =1.700E+00 RB =6.524E+01 IRB=0.000E+00 RBM=5.338E+01
+ RE =1.013E+01 RC =4.303E+00 CJE=7.082E-13 VJE=7.973E-01
+ MJE=4.950E-01 TF =1.866E-11 XTF=1.873E+01 VTF=2.825E+00
+ ITF=2.655E-01 CJC=6.056E-13 VJC=8.046E-01 MJC=4.931E-01
+ XCJC=1.76E-01 TR =8.748E-10 CJS=8.651E-13 VJS=5.723E-01
+ MJS=4.105E-01 FC =9.765E-01
*
.MODEL QINP PNP
+ IS =4.242E-17 BF =7.165E+01 NF =1.000E+00 VAF=1.720E+01
+ IKF=4.832E-03 ISE=1.639E-16 NE =1.366E+00 BR =1.658E+01
+ NR =1.000E+00 VAR=1.805E+00 IKR=3.394E-02 ISC=9.789E-19
+ NC =1.634E+00 RB =1.620E+02 IRB=0.000E+00 RBM=7.750E+01
+ RE =2.382E+00 RC =3.386E+01 CJE=4.079E-14 VJE=7.975E-01
+ MJE=5.000E-01 TF =3.263E-11 XTF=5.386E+00 VTF=2.713E+00
+ ITF=1.306E-02 CJC=9.356E-14 VJC=7.130E-01 MJC=4.200E-01
+ XCJC=1.04E-01 TR =6.577E-10 CJS=6.743E-13 VJS=6.691E-01
+ MJS=0.000E+00 FC =8.803E-01
*
.MODEL QOUTP1 PNP
+ IS =2.399E-16 BF =7.165E+01 NF =1.000E+00 VAF=3.439E+01
+ IKF=3.509E-02 ISE=1.190E-15 NE =1.366E+00 BR =1.946E+01
+ NR =1.000E+00 VAR=1.805E+00 IKR=2.464E-01 ISC=6.685E-18
+ NC =1.634E+00 RB =1.542E+01 IRB=0.000E+00 RBM=3.788E+00
+ RE =3.281E-01 RC =1.420E+01 CJE=2.962E-13 VJE=7.975E-01
+ MJE=5.000E-01 TF =3.051E-11 XTF=5.386E+00 VTF=2.713E+00
+ ITF=9.481E-02 CJC=4.131E-13 VJC=7.130E-01 MJC=4.200E-01
+ XCJC=1.70E-01 TR =1.388E-09 CJS=9.092E-13 VJS=6.691E-01
+ MJS=3.950E-01 FC =8.803E-01
*
.MODEL QOUTP2 PNP
+ IS =1.147E-15 BF =7.165E+01 NF =1.000E+00 VAF=3.439E+01
+ IKF=1.678E-01 ISE=5.690E-15 NE =1.366E+00 BR =1.961E+01
+ NR =1.000E+00 VAR=1.805E+00 IKR=1.178E+00 ISC=3.188E-17
+ NC =1.634E+00 RB =5.323E+01 IRB=0.000E+00 RBM=5.079E+01
+ RE =1.069E+01 RC =3.177E+00 CJE=1.416E-12 VJE=7.975E-01
+ MJE=5.000E-01 TF =3.042E-11 XTF=5.386E+00 VTF=2.713E+00
+ ITF=4.534E-01 CJC=1.918E-12 VJC=7.130E-01 MJC=4.200E-01
+ XCJC=1.76E-01 TR =1.973E-09 CJS=3.054E-12 VJS=6.691E-01
+ MJS=3.950E-01 FC =8.803E-01
*
.ENDS CLC407
* CLC410 Macromodel Net List--- Subcircuit Format (MMD.06)
*
*   This is a Video Monolithic Current Feedback Op Amp with
*   disable, Fast Settling (0.05% in 12nS) and an Input Offset
*   Adjust Pin.
*
* Version 1, Rev. B, Date 03-17-92, By KEB
*
* Connections  Non-Inverting Input
*              | Inverting Input
*              | | +Vcc  
*              | | | -Vee 
*              | | | | Output
*              | | | | | Offset Adj.
*              | | | | | | Disable
*              | | | | | | |
.SUBCKT CLC410 3 2 7 4 6 1 8
*
* DISABLE CIRCUIT
*
D1 11 8 DX
R2 8 0 10MEG
C3 11 0 400F
R3 11 10 4K
R1 10 7 15K
Q1 17 10 16 QINP
R6 16 15 427
R5 15 7 699
R7 17 4 686
Q2 19 15 7 QINP
Q3 21 17 4 QINN
*
C1 28 13 320F
G1 13 0 POLY(2) 7 18 13 0 0 0 0 0 10 0
R4 13 0 1G
C2 13 44 320F
*
* DC BIAS MIRROR
*
R10 7 18 1.1K
D2 18 19 DX
R11 19 20 18.0K
R9 1 20 15.0K
R8 1 0 10Meg
R12 20 21 18.0K
D3 21 22 DX
R13 22 4 1.1K
*
G2 7 23 POLY(1) 7 18 0 2.62M
C4 23 0 1.46P
*
G3 26 4 POLY(1) 22 4 0 2.43M
C5 26 0 1.24P
*
* INPUT VOLTAGE BUFFER
*
E1 3 28 POLY(1) 46 0 0 1.47
C7 28 0 0.68P
*
R17 28 27 50.0
Q4 4 27 24 QINP
R14 24 23 57.4
R18 28 29 50.0
Q5 7 29 25 QINN
R15 25 26 42.1
*
G4 2 0 POLY(1) 47 0 0 7.96M
C10 2 0 2.25P
*
R21 2 34 50
Q6 33 30 34 QINN
R16 23 30 50.0
*
R22 2 35 50
Q7 36 31 35 QINP
R19 26 31 50.0
*
* CURRENT MIRROR GAIN BLOCKS
*
R20 7 32 445
V1 32 33 2.20
C6 33 0 447F
C9 33 40 221F
G5 7 40 POLY(1) 7 32 0 8.52M
D4 40 38 DX
V3 7 38 1.7
G7 7 41 POLY(1) 7 32 0 10.9M
*
R23 37 4 445
V2 36 37 2.00
C8 36 0 223F
C11 36 40 130F
G6 40 4 POLY(1) 37 4 0 8.76M
D5 39 40 DX
V4 39 4 1.7
G8 42 4 POLY(1) 37 4 0 10.8M
*
* OUTPUT STAGE AND COMPENSATION CAPACITORS
*
C13 40 0 651F
R24 40 0 57.7K
*
C12 33 41 1.30P
Q8 4 40 41 QOUTP1
C14 36 42 1.30P
Q9 7 40 42 QOUTN1
*
C15 41 0 2.48P
R25 41 43 100
Q10 7 43 44 QOUTN2
C16 42 0 2.21P
R26 42 45 100
Q11 4 45 44 QOUTP2
*
C17 44 0 0.68P
R27 44 6 8
*
* NOISE BLOCKS
*
R28 46 0 122
R29 46 0 122
*
R30 47 0 122
R31 47 0 122
*
* MODELS
*
.MODEL DX D IS=0.166F TT=500N
*
.MODEL QINN NPN
+ IS =0.166F    BF =3.239E+02  NF =1.000E+00 VAF=8.457E+01
+ IKF=2.462E-02 ISE=2.956E-17  NE =1.197E+00 BR =3.719E+01
+ NR =1.000E+00 VAR=1.696E+00  IKR=3.964E-02 ISC=1.835E-19
+ NC =1.700E+00 RB =6.796E+01  IRB=0.000E+00 RBM=1.506E+01
+ RE =5.613E-01 RC =2.645E+01  CJE=1.588E-13 VJE=7.973E-01
+ MJE=4.950E-01 TF =1.948E-11  XTF=1.873E+01 VTF=2.825E+00
+ ITF=5.955E-02 PTF=0.000E+00  CJC=1.720E-13 VJC=8.046E-01
+ MJC=4.931E-01 XCJC=1.386E-01 TR =4.212E-10 CJS=3.938E-13
+ VJS=5.723E-01 MJS=4.105E-01  KF =2.000E-12 AF =1.000E+00
+ FC =9.765E-01
*
.MODEL QOUTN1 NPN
+ IS =9.386E-16 BF =3.239E+02  NF =1.000E+00 VAF=8.457E+01
+ IKF=1.089E-01 ISE=1.308E-16  NE =1.197E+00 BR =3.960E+01
+ NR =1.000E+00 VAR=1.696E+00  IKR=1.754E-01 ISC=6.787E-19
+ NC =1.700E+00 RB =1.536E+01  IRB=0.000E+00 RBM=3.403E+00
+ RE =1.268E-01 RC =1.857E+01  CJE=7.030E-13 VJE=7.973E-01
+ MJE=4.950E-01 TF =1.874E-11  XTF=1.873E+01 VTF=2.825E+00
+ ITF=2.635E-01 PTF=0.000E+00  CJC=6.172E-13 VJC=8.046E-01
+ MJC=4.931E-01 XCJC=1.709E-01 TR =1.069E-09 CJS=1.028E-12
+ VJS=5.723E-01 MJS=4.105E-01  KF =2.000E-12 AF =1.000E+00
+ FC =9.765E-01
*
.MODEL QOUTN2 NPN
+ IS =1.898E-15 BF =3.239E+02  NF =1.000E+00 VAF=8.457E+01
+ IKF=2.203E-01 ISE=2.645E-16  NE =1.197E+00 BR =3.956E+01
+ NR =1.000E+00 VAR=1.696E+00  IKR=3.547E-01 ISC=1.378E-18
+ NC =1.700E+00 RB =7.592E+00  IRB=0.000E+00 RBM=1.683E+00
+ RE =6.271E-02 RC =1.227E+01  CJE=1.422E-12 VJE=7.973E-01
+ MJE=4.950E-01 TF =1.875E-11  XTF=1.873E+01 VTF=2.825E+00
+ ITF=5.330E-01 PTF=0.000E+00  CJC=1.254E-12 VJC=8.046E-01
+ MJC=4.931E-01 XCJC=1.702E-01 TR =7.776E-10 CJS=1.931E-12
+ VJS=5.723E-01 MJS=4.105E-01  KF =2.000E-12 AF =1.000E+00
+ FC =9.765E-01
*
.MODEL QINP PNP
+ IS =0.166F    BF =7.165E+01  NF =1.000E+00 VAF=1.500E+01
+ IKF=1.882E-02 ISE=6.380E-16  NE =1.366E+00 BR =1.833E+01
+ NR =1.000E+00 VAR=1.805E+00  IKR=1.321E-01 ISC=3.666E-18
+ NC =1.634E+00 RB =2.876E+01  IRB=0.000E+00 RBM=7.568E+00
+ RE =6.118E-01 RC =3.739E+01  CJE=1.588E-13 VJE=7.975E-01
+ MJE=5.000E-01 TF =3.156E-11  XTF=5.386E+00 VTF=2.713E+00
+ ITF=5.084E-02 PTF=0.000E+00  CJC=2.725E-13 VJC=7.130E-01
+ MJC=4.200E-01 XCJC=1.385E-01 TR =7.500E-11 CJS=7.417E-13
+ VJS=6.691E-01 MJS=3.950E-01  KF =2.000E-12 AF =1.000E+00
+ FC =8.803E-01
*
.MODEL QOUTP1 PNP
+ IS =5.693E-16 BF =7.165E+01  NF =1.000E+00 VAF=3.439E+01
+ IKF=8.328E-02 ISE=2.824E-15  NE =1.366E+00 BR =1.948E+01
+ NR =1.000E+00 VAR=1.805E+00  IKR=5.848E-01 ISC=1.586E-17
+ NC =1.634E+00 RB =6.498E+00  IRB=0.000E+00 RBM=1.710E+00
+ RE =1.383E-01 RC =1.767E+01  CJE=7.030E-13 VJE=7.975E-01
+ MJE=5.000E-01 TF =3.073E-11  XTF=5.386E+00 VTF=2.713E+00
+ ITF=2.250E-01 PTF=0.000E+00  CJC=9.776E-13 VJC=7.130E-01
+ MJC=4.200E-01 XCJC=1.709E-01 TR =1.450E-10 CJS=1.637E-12
+ VJS=6.691E-01 MJS=3.950E-01  KF =2.000E-12 AF =1.000E+00
+ FC =8.803E-01
*
.MODEL QOUTP2 PNP
+ IS =1.158E-15 BF =7.165E+01  NF =1.000E+00 VAF=3.439E+01
+ IKF=1.694E-01 ISE=5.742E-15  NE =1.366E+00 BR =1.923E+01
+ NR =1.000E+00 VAR=1.805E+00  IKR=1.189E+00 ISC=3.240E-17
+ NC =1.634E+00 RB =3.162E+00  IRB=0.000E+00 RBM=8.410E-01
+ RE =6.797E-02 RC =8.267E+00  CJE=1.430E-12 VJE=7.975E-01
+ MJE=5.000E-01 TF =3.090E-11  XTF=5.386E+00 VTF=2.713E+00
+ ITF=4.575E-01 PTF=0.000E+00  CJC=2.083E-12 VJC=7.130E-01
+ MJC=4.200E-01 XCJC=1.631E-01 TR =1.150E-10 CJS=3.993E-12
+ VJS=6.691E-01 MJS=3.950E-01  KF =2.000E-12 AF =1.000E+00
+ FC =8.803E-01
*
.ENDS CLC410
* CLC425 Macromodel Net List--- Subcircuit Format (MMD.06)
*
*   This is an Ultra Low Noise, Wideband Monolithic Voltage
*   Feedback Op Amp with Current Supply Adjust.
*
* Version 1, Rev. A, Date 12-17-92, By KEB
*
* Connections  Non-Inverting Input
*              |  Inverting Input
*              |  |  +Vcc  
*              |  |  |  -Vee
*              |  |  |  |  Output
*              |  |  |  |  |  Supply Current Adjustment
*              |  |  |  |  |  |
.SUBCKT CLC425 3  2  7  4  6  8
*
* INPUT STAGE
*
C1 2 0 1.00P
D1 17 2 DZ
Q1 12 2 17 QINN 4.00
E1 3 16 POLY(3) 29 0 30 0 8 4 1.00M 
+ 1.338 1.338 0 0 0 -2.172 0 -2.172 0
C5 16 0 1.00P
D2 17 16 DZ
Q2 15 16 17 QINN 4.00
*
R1 7 10 136
R3 7 11 10.0
C7 11 10 80.0P
V1 10 12 1.70
C2 12 0 912F
R2 7 13 136
R4 7 14 10.0
C8 14 13 80.0P
V2 13 15 1.70
C4 15 0 912F
C3 12 15 4.18P
*
G1 17 4 POLY(3) 8 4 7 4 17 4 0 
+ 10.59M 17.20U 0 0 0 34.56U 0 56.14N 0
C6 17 0 244F
V3 18 4 1.70
D3 18 17 DX
*
* INTERMEDIATE STAGE
*
C9 15 21 4.30P
C10 15 6 1.00P
V4 7 19 1.70
D4 21 19 DX
G2 7 21 POLY(3) 7 13 7 10 28 0 0 9.000M 9.000M 260.1M
*
C11 21 0 2.49P
*
V5 20 4 1.70
D5 20 21 DX
G3 21 4 POLY(3) 8 4 7 4 21 4 0 5.000M 
+ 12.40U 0 0 0 5.504U 0 2.275U 0
*
* OUTPUT STAGE
*
G4 7 22 POLY(1) 8 4 750.0U 1.000M
C12 22 0 946F
C13 23 0 686F
G5 23 4 POLY(2) 8 4 7 4 0 13.33M 28.30U
*
Q3 4 21 22 QOUTP1
Q4 7 21 23 QOUTN1
Q5 7 22 24 QOUTN2
Q6 4 23 25 QOUTP2
R5 24 6 10.0
R6 6 25 10.0
C14 6 0 4.00P
*
* PROGRAMMABLE SUPPLY BLOCK
*
V6 7 26 1.50
R7 26 8 25.0K
R8 8 4 1.00K
G6 7 4 POLY(1) 8 4 0 2.508M
*
* EXCESS PHASE BLOCK
*
E2 27 0 POLY(1) 10 13 0 1.00
L1 27 28 9.259P
C15 28 0 3.086P
R9 28 0 1.00
*
* NOISE BLOCK
*
I1 30 29 DC 846U
D6 29 0 DN
D7 0 30 DN
*
* MODELS
*
.MODEL DN D IS=0.166F RS=15.2 KF=10F AF=1.00
.MODEL DX D TT=200N
.MODEL DZ D IS=0.166F
*
.MODEL QINN NPN
+ IS =0.166F    BF =500       NF =1.000E+00 VAF=84.6
+ IKF=2.462E-02 ISE=2.956E-17 NE =1.300     BR =3.719E+01
+ NR =1.000E+00 VAR=1.696E+00 IKR=3.964E-02 ISC=1.835E-19
+ NC =1.700E+00 RB =68        IRB=0.000E+00 RBM=15.1
+ RC =2.645E+01 CJE=1.632E-13 VJE=7.973E-01
+ MJE=4.950E-01 TF =1.948E-11 XTF=1.873E+01 VTF=2.825E+00
+ ITF=5.955E-02 PTF=0.000E+00 CJC=1.720E-13 VJC=8.046E-01
+ MJC=4.931E-01 XCJC=171M     TR =4.212E-10 CJS=629F
+ MJS=0         KF =1.00F     AF =1.000E+00
+ FC =9.765E-01
*
.MODEL QOUTN1 NPN
+ IS =7.822E-16 BF =3.239E+02  NF =1.000E+00 VAF=8.457E+01
+ IKF=9.079E-02 ISE=1.090E-16  NE =1.197E+00 BR =3.960E+01
+ NR =1.000E+00 VAR=1.696E+00  IKR=1.462E-01 ISC=5.656E-19
+ NC =1.700E+00 RB =1.843E+01  IRB=0.000E+00 RBM=4.083E+00
+ RC =6.141E+00 CJE=5.858E-13  VJE=7.973E-01
+ MJE=4.950E-01 TF =1.874E-11  XTF=1.873E+01 VTF=2.825E+00
+ ITF=2.196E-01 PTF=0.000E+00  CJC=5.143E-13 VJC=8.046E-01
+ MJC=4.931E-01 XCJC=1.709E-01 TR =1.069E-09 CJS=8.567E-13
+ VJS=5.723E-01 MJS=4.105E-01  KF =1.0F      AF =1.000E+00
+ FC =9.765E-01
*
.MODEL QOUTN2 NPN
+ IS =1.880E-15 BF =3.239E+02  NF =1.000E+00 VAF=8.457E+01
+ IKF=2.182E-01 ISE=2.620E-16  NE =1.197E+00 BR =3.971E+01
+ NR =1.000E+00 VAR=1.696E+00  IKR=3.513E-01 ISC=1.348E-18
+ NC =1.700E+00 RB =57.7       IRB=0.000E+00 RBM=51.7
+ RC =3.738E+00 CJE=1.408E-12  VJE=7.973E-01
+ MJE=4.950E-01 TF =1.871E-11  XTF=1.873E+01 VTF=2.825E+00
+ ITF=5.278E-01 PTF=0.000E+00  CJC=1.224E-12 VJC=8.046E-01
+ MJC=4.931E-01 XCJC=1.726E-01 TR =1.296E-09 CJS=1.496E-12
+ VJS=5.723E-01 MJS=4.105E-01  KF =1.0F      AF =1.000E+00
+ FC =9.765E-01
*
.MODEL QOUTP1 PNP
+ IS =4.744E-16 BF =7.165E+01  NF =1.000E+00 VAF=3.439E+01
+ IKF=6.940E-02 ISE=2.353E-15  NE =1.366E+00 BR =1.948E+01
+ NR =1.000E+00 VAR=1.805E+00  IKR=4.873E-01 ISC=1.322E-17
+ NC =1.634E+00 RB =1.780E+01  IRB=0.000E+00 RBM=2.100E+00
+ RC =1.037E+01 CJE=5.858E-13  VJE=7.975E-01
+ MJE=5.000E-01 TF =3.073E-11  XTF=5.386E+00 VTF=2.713E+00
+ ITF=1.875E-01 PTF=0.000E+00  CJC=8.147E-13 VJC=7.130E-01
+ MJC=4.200E-01 XCJC=1.709E-01 TR =1.450E-10 CJS=1.364E-12
+ VJS=6.691E-01 MJS=3.950E-01  KF =1.0F      AF =1.000E+00
+ FC =8.803E-01
*
.MODEL QOUTP2 PNP
+ IS =1.140E-15 BF =7.165E+01  NF =1.000E+00 VAF=3.439E+01
+ IKF=1.668E-01 ISE=5.655E-15  NE =1.366E+00 BR =1.953E+01
+ NR =1.000E+00 VAR=1.805E+00  IKR=1.171E+00 ISC=3.173E-17
+ NC =1.634E+00 RB =53.2       IRB=0.000E+00 RBM=50.8
+ RC =6.213E+00 CJE=1.408E-12  VJE=7.975E-01
+ MJE=5.000E-01 TF =3.070E-11  XTF=5.386E+00 VTF=2.713E+00
+ ITF=4.506E-01 PTF=0.000E+00  CJC=1.939E-12 VJC=7.130E-01
+ MJC=4.200E-01 XCJC=1.726E-01 TR =1.850E-10 CJS=2.351E-12
+ VJS=6.691E-01 MJS=3.950E-01  KF =1.0F      AF =1.000E+00
+ FC =8.803E-01
*
.ENDS CLC425
* CLC426 Macromodel Net List--- Subcircuit Format (MMD.06)
*
*   This is an Ultra Low Noise, Wideband Monolithic Voltage
*   Feedback Op Amp with Current Supply Adjust and External
*   Compensation.
*
* Version 1, Rev. A, Date 04-26-94, by KEB
*
* Connections: Non-Inverting Input
*              | Inverting
*              | | +Vcc  
*              | | | -Vee
*              | | | | Output
*              | | | | | Icc Adjust (Rp)
*              | | | | | | External Compensation
*              | | | | | | |
.SUBCKT CLC426 3 2 7 4 6 8 5
*
* BIAS CIRCUITRY
*
R1 7 10 100
Q1 10 12 11 QINN1
D1 11 12 DZ
R2 11 8 1.00K
C1 8 0 1.00P
R3 8 4 1.00G
R4 7 12 100K
D2 12 13 DZ
D3 13 4 DZ
*
G1 0 14 POLY(3) 12 4 7 10 0 14 -226M 294M -10.0 1.00M
D4 0 14 DY
*
G2 7 20 POLY(2) 14 0 7 20 -442N 2.56U 1.39U
C2 20 0 800F
G7 7 34 POLY(2) 14 0 7 34 -442N 2.56U 1.39U
C5 34 0 800F
*
G4 21 4 POLY(2) 14 0 21 4 9.27U 5.43U 400N
C4 21 0 400F
G9 36 4 POLY(2) 14 0 36 4 9.27U 5.43U 400N
C7 36 0 400F
*
* INPUT STAGE
*
C3 2 0 1.00P
G3 2 0 POLY(2) 50 0 51 0 0 100U 100U
Q2 4 2 20 QINP2
Q3 7 2 21 QINN1
V1 7 22 DC 1.00
Q4 22 20 23 QINN1
Q5 24 21 23 QINP2
V2 24 4 DC 1.00
*
Q6 31 34 23 QINN2
Q7 32 36 23 QINP1
Q8 7 35 36 QINN2
Q9 4 35 34 QINP1
G8 35 0 POLY(2) 52 0 53 0 0 100U 100U
E1 3 35 POLY(2) 54 0 55 0 1.55M 1.00 1.00
C6 3 0 1.00P
*
* GAIN STAGE
*
D5 7 30 DY
G5 30 31 POLY(1) 30 31 0 1.00
R5 7 31 450
V3 7 40 DC 1.75
D7 41 40 DX
C8 7 41 7.00P
G10 7 41 POLY(3) 7 41 7 31 30 31 0 574N 2.22M 250M 0 4.78U 538U
C11 31 43 400F
G12 7 43 POLY(1) 7 31 0 2.22M
C12 43 0 800F
*
G6 32 33 POLY(1) 32 33 0 1.00
D6 33 4 DY
R6 32 4 450
D8 42 41 DX
V4 42 4 DC 1.75
C10 41 4 7.00P
G11 41 4 POLY(3) 41 4 32 4 32 33 0 1.33U 2.22M 250M 0 11.1U 1.25M
C13 32 44 800F
G13 44 4 POLY(1) 32 4 0 8.00M
C14 44 0 400F
*
C9 5 0 1.00P
R7 5 41 25.0
*
* OUTPUT STAGE
*
Q10 4 41 43 QOUTP1 2.00
Q11 7 41 44 QOUTN1 2.00
Q12 7 43 6 QOUTN2
C15 6 0 1.00P
Q13 4 44 6 QOUTP2
D9 41 6 DY
D10 6 41 DY
*
* NOISE BLOCKS
*
G14 51 50 POLY(1) 14 0 8.09U 4.05U
D11 50 0 DN1
D12 0 51 DN1
*
G15 53 52 POLY(1) 14 0 8.09U 4.05U
D13 52 0 DN2
D14 0 53 DN2
*
G16 55 54 POLY(1) 14 0 2.71U 1.35U
D15 54 0 DN3
D16 0 55 DN3
*
* MODELS
*
.MODEL DN1 D IS=0.166F KF=19.6U AF=3.00
.MODEL DN2 D IS=0.166F KF=18.2U AF=3.00
.MODEL DN3 D IS=0.166F KF=1.07F AF=1.00
.MODEL DX D TT=100N
.MODEL DY D IS=4.11E-16 RS=1.00
.MODEL DZ D IS=3.07E-17 RS=1.00
*
.MODEL QINN1 NPN
+ IS =5.800E-16 BF =3.239E+02  NF =1.000E+00 VAF=4.229E+01
+ IKF=6.700E-02 ISE=8.000E-17  NE =1.197E+00 BR =4.003E+01
+ NR =1.000E+00 VAR=1.696E+00  IKR=1.000E-01 ISC=4.000E-19
+ NC =1.700E+00 RB =1.843E+01  IRB=0.000E+00 RBM=4.083E+00
+ RE =2.100E-01 RC =1.000E+01  CJE=4.300E-13 VJE=7.973E-01
+ MJE=4.950E-01 TF =1.862E-11  XTF=1.873E+01 VTF=2.825E+00
+ ITF=1.651E-01 PTF=0.000E+00  CJC=3.500E-13 VJC=8.046E-01
+ MJC=4.931E-01 XCJC=1.778E-01 TR =7.000E-10 CJS=1.600E-12
+ VJS=5.723E-01 MJS=0.000E+00  FC =9.765E-01
*
.MODEL QINN2 NPN
+ IS =5.800E-16 BF =2.939E+02  NF =1.000E+00 VAF=3.279E+01
+ IKF=6.700E-02 ISE=8.000E-17  NE =1.197E+00 BR =4.003E+01
+ NR =1.000E+00 VAR=1.696E+00  IKR=1.000E-01 ISC=4.000E-19
+ NC =1.700E+00 RB =1.843E+01  IRB=0.000E+00 RBM=4.083E+00
+ RE =2.100E-01 RC =1.000E+01  CJE=4.300E-13 VJE=7.973E-01
+ MJE=4.950E-01 TF =1.862E-11  XTF=1.873E+01 VTF=2.825E+00
+ ITF=1.651E-01 PTF=0.000E+00  CJC=3.500E-13 VJC=8.046E-01
+ MJC=4.931E-01 XCJC=1.778E-01 TR =7.000E-10 CJS=1.600E-12
+ VJS=5.723E-01 MJS=0.000E+00  FC =9.765E-01
*
.MODEL QOUTN1 NPN
+ IS =3.954E-16 BF =3.239E+02  NF =1.000E+00 VAF=8.457E+01
+ IKF=4.590E-02 ISE=5.512E-17  NE =1.197E+00 BR =3.957E+01
+ NR =1.000E+00 VAR=1.696E+00  IKR=7.392E-02 ISC=2.867E-19
+ NC =1.700E+00 RB =3.645E+01  IRB=0.000E+00 RBM=8.077E+00
+ RE =3.010E-01 RC =2.438E+01  CJE=2.962E-13 VJE=7.973E-01
+ MJE=4.950E-01 TF =1.875E-11  XTF=1.873E+01 VTF=2.825E+00
+ ITF=1.110E-01 PTF=0.000E+00  CJC=2.608E-13 VJC=8.046E-01
+ MJC=4.931E-01 XCJC=1.704E-01 TR =5.832E-10 CJS=4.115E-13
+ VJS=5.723E-01 MJS=4.105E-01  FC =9.765E-01
*
.MODEL QOUTN2 NPN
+ IS =1.880E-15 BF =3.239E+02  NF =1.000E+00 VAF=8.457E+01
+ IKF=2.182E-01 ISE=2.620E-16  NE =1.197E+00 BR =4.090E+01
+ NR =1.000E+00 VAR=1.696E+00  IKR=3.513E-01 ISC=1.229E-18
+ NC =1.700E+00 RB =7.668E+00  IRB=0.000E+00 RBM=1.699E+00
+ RE =5.063E+00 RC =3.371E+00  CJE=1.408E-12 VJE=7.973E-01
+ MJE=4.950E-01 TF =1.838E-11  XTF=1.873E+01 VTF=2.825E+00
+ ITF=5.278E-01 PTF=0.000E+00  CJC=1.095E-12 VJC=8.046E-01
+ MJC=4.931E-01 XCJC=1.930E-01 TR =1.296E-09 CJS=1.217E-12
+ VJS=5.723E-01 MJS=4.105E-01  FC =9.765E-01
*
.MODEL QINP1 PNP
+ IS =3.500E-16 BF =7.165E+01  NF =1.000E+00 VAF=1.720E+01
+ IKF=4.120E-02 ISE=1.750E-15  NE =1.366E+00 BR =1.970E+01
+ NR =1.000E+00 VAR=1.805E+00  IKR=3.600E-01 ISC=9.877E-18
+ NC =1.634E+00 RB =7.797E+00  IRB=0.000E+00 RBM=1.915E+00
+ RE =2.260E-01 RC =1.500E+01  CJE=4.300E-13 VJE=7.975E-01
+ MJE=5.000E-01 TF =3.032E-11  XTF=5.386E+00 VTF=2.713E+00
+ ITF=1.374E-01 PTF=0.000E+00  CJC=5.600E-13 VJC=7.130E-01
+ MJC=4.200E-01 XCJC=1.778E-01 TR =1.605E-09 CJS=1.600E-12
+ VJS=6.691E-01 MJS=0.000E+00  FC =8.803E-01
*
.MODEL QINP2 PNP
+ IS =3.500E-16 BF =6.565E+01  NF =1.000E+00 VAF=1.370E+01
+ IKF=4.120E-02 ISE=1.750E-15  NE =1.366E+00 BR =1.970E+01
+ NR =1.000E+00 VAR=1.805E+00  IKR=3.600E-01 ISC=9.877E-18
+ NC =1.634E+00 RB =7.797E+00  IRB=0.000E+00 RBM=1.915E+00
+ RE =2.260E-01 RC =1.500E+01  CJE=4.300E-13 VJE=7.975E-01
+ MJE=5.000E-01 TF =3.032E-11  XTF=5.386E+00 VTF=2.713E+00
+ ITF=1.374E-01 PTF=0.000E+00  CJC=5.600E-13 VJC=7.130E-01
+ MJC=4.200E-01 XCJC=1.778E-01 TR =1.605E-09 CJS=1.600E-12
+ VJS=6.691E-01 MJS=0.000E+00  FC =8.803E-01
*
.MODEL QOUTP1 PNP
+ IS =2.399E-16 BF =7.165E+01  NF =1.000E+00 VAF=3.439E+01
+ IKF=3.509E-02 ISE=1.190E-15  NE =1.366E+00 BR =1.946E+01
+ NR =1.000E+00 VAR=1.805E+00  IKR=2.464E-01 ISC=6.685E-18
+ NC =1.634E+00 RB =1.542E+01  IRB=0.000E+00 RBM=3.788E+00
+ RE =3.281E-01 RC =1.420E+01  CJE=2.962E-13 VJE=7.975E-01
+ MJE=5.000E-01 TF =3.051E-11  XTF=5.386E+00 VTF=2.713E+00
+ ITF=9.481E-02 PTF=0.000E+00  CJC=4.131E-13 VJC=7.130E-01
+ MJC=4.200E-01 XCJC=1.704E-01 TR =1.388E-09 CJS=9.092E-13
+ VJS=6.691E-01 MJS=3.950E-01  FC =8.803E-01
*
.MODEL QOUTP2 PNP
+ IS =1.140E-15 BF =1.401E+02  NF =1.000E+00 VAF=3.439E+01
+ IKF=1.668E-01 ISE=5.655E-15  NE =1.366E+00 BR =2.009E+01
+ NR =1.000E+00 VAR=1.805E+00  IKR=1.171E+00 ISC=3.141E-17
+ NC =1.634E+00 RB =3.245E+00  IRB=0.000E+00 RBM=7.970E-01
+ RE =5.069E+00 RC =5.381E+00  CJE=1.408E-12 VJE=7.975E-01
+ MJE=5.000E-01 TF =3.013E-11  XTF=5.386E+00 VTF=2.713E+00
+ ITF=4.506E-01 PTF=0.000E+00  CJC=1.734E-12 VJC=7.130E-01
+ MJC=4.200E-01 XCJC=1.929E-01 TR =2.704E-09 CJS=2.020E-12
+ VJS=6.691E-01 MJS=3.950E-01  FC =8.803E-01
*
.ENDS CLC426
* CLC430 Macromodel Net List--- Subcircuit Format (MMD.06)
*
*   This is a Wide band Monolithic Current Feedback Op Amp
*   with disable and +/-5V to +/-15V supply capability.
*
* Version 1, Rev. B, Date 06-16-95, By KEB
*
* Connections: Non-Inverting Input
*              | Inverting Input
*              | | +Vcc  
*              | | | -Vee
*              | | | | Output
*              | | | | | Disable
*              | | | | | |
.SUBCKT CLC430 3 2 7 4 6 8
*
* DISABLE CIRCUIT
*
R2 8 0 10MEG
R1 8 12 8.8K
D1 11 12 DY
C3 11 0 271F
R4 7 11 6.6K
V1 7 10 950M
D0 10 11 DW
Q1 4 11 44 QINP
R6 14 44 730
R5 7 14 20.3K
Q2 16 14 15 QINP
R7 7 15 574
*
C1 24 13 500F
G1 13 0 POLY(2) 7 17 13 0 0 0 0 0 10 0
R3 13 0 1G
C2 13 6 500F
*
* DC BIAS MIRROR
*
R8 7 17 441
C4 17 0 3.54P
D2 17 16 DY
I11 16 4 223U
C5 18 0 2.04P
R9 18 4 349
*
G2 7 19 POLY(1) 7 17 0 2.20M
C6 19 0 0.64P
*
G3 22 4 POLY(1) 18 4 0 2.30M
C8 22 0 482F
*
* INPUT VOLTAGE BUFFER
*
E1 3 24 POLY(1) 42 0 2.0M 2.34
C7 24 0 500F 
*
R13 24 23 25.0
Q3 18 23 20 QINP
R10 20 19 68.9
R14 24 25 25.0
Q4 16 25 21 QINN
R11 21 22 68.2
*
G4 2 0 POLY(1) 43 0 0 11.97M
C12 2 0 3.5P 
*
R17 2 29 68.4
Q5 27 28 29 QINN
R12 19 28 25.0
*
R27a 28 2 25K
R27b 2 31 25K
*
R28 2 30 70.2
Q6 32 31 30 QINP
R15 22 31 25.0
*
* CURRENT MIRROR GAIN BLOCKS
*
R16 7 26 541
V2 26 27 3.00
C9 27 0 2.70P 
C11 27 36 .65P 
G5 7 36 POLY(1) 7 26 0 5.20M
D3 36 34 DX
V4 7 34 2.7
G7 7 37 POLY(1) 7 26 0 7.11M
C17 37 0 1.69P
*
R18 33 4 537
V3 32 33 3.00
C10 32 0 1.09P 
C13 32 36 .65P 
G6 36 4 POLY(1) 33 4 0 5.16M
D4 35 36 DX
V5 35 4 2.7
G8 38 4 POLY(1) 33 4 0 6.93M
C18 38 0 0.94P
*
* OUTPUT STAGE AND COMPENSATION CAPACITORS
*
R19 36 0 2.32MEG
C15 36 0 5.75P 
*
Q7 4 36 37 QOUTP1 2.00
Q8 7 36 38 QOUTN1 2.00
*
D5 6 36 DZ
D6 36 6 DZ
C19 6 0 1.23P 
*
C14 27 6 100F 
R20 6 39 5.00
Q9 7 37 39 QOUTN2 2.00
*
C16 32 6 100F 
R22 6 41 5.00
Q10 4 38 41 QOUTP2 4.00
*
* NOISE BLOCKS
*
R23 42 0 122
R24 42 0 122
*
R25 43 0 122
R26 43 0 122
*
* MODELS
*
.MODEL DW D IS=0.413F TT=100N
.MODEL DX D IS=0.413F TT=1.50U
.MODEL DY D IS=0.413F
.MODEL DZ D IS=1.35F
*
.MODEL QINN NPN
+ IS =4.131E-16 BF =2.160E+02 NF =1.000E+00 VAF=3.405E+02
+ IKF=2.424E-02 ISE=2.455E-16 NE =1.263E+00 BR =2.546E-01
+ NR =1.000E+00 VAR=2.115E+00 IKR=6.594E-03 ISC=0.000E+00
+ NC =2.000E+00 RB =5.417E+01 IRB=0.000E+00 RBM=4.167E+00
+ RE =1.083E+00 RC =3.294E+01 CJE=7.284E-13 VJE=6.534E-01
+ MJE=2.873E-01 TF =4.000E-10 XTF=5.000E+00 VTF=4.456E+00
+ ITF=7.728E-02 PTF=0.000E+00 CJC=7.387E-13 VJC=6.669E-01
+ MJC=4.051E-01 XCJC=2.60E-01 TR =1.550E-09 CJS=1.224E-12
+ VJS=5.253E-01 MJS=3.708E-01 KF =4.000E-13 AF =1.000E+00
+ FC =9.750E-01
*
.MODEL QOUTN1 NPN
+ IS =1.377E-15 BF =2.160E+02 NF =1.000E+00 VAF=3.405E+02
+ IKF=8.079E-02 ISE=8.184E-16 NE =1.263E+00 BR =3.277E-01