***************************************************************
.MODEL BFG194 PNP(
+ IS = 4.574e-15      BF = 111.78       NF = 0.66503
+ VAF = 9.1007        IKF = 0.84785     ISE = 2.1629e-14
+ NE = 0.841          BR = 92.296       NR = 0.43618
+ VAR = 1.7871        IKR = 0.012843    ISC = 7.8447e-18
+ NC = 1.6            RB = 0.75304      IRB = 6.1674e-05
+ RBM = 4.1356        RE = 0.15908      RC = 0.10833
+ CJE = 1.7699e-14    VJE = 0.84843     MJE = 0.48212
+ TF = 5.311e-11      XTF = 0.65766     VTF = 0.10323
+ ITF = 0.010453      PTF = 0           CJC = 3.5856e-12
+ VJC = 0.71631       MJC = 0.40003     XCJC = 0.063742
+ TR = 9.7481e-10     CJS= 0            VJS = 0.75
+ MJS = 0             XTB = 0           EG = 1.11
+ XTI = 3             FC = 0.90755)
***************************************************************
.MODEL BFR194 PNP(
+ IS = 4.574e-15      BF = 111.78       NF = 0.66503
+ VAF = 9.1007        IKF = 0.84785     ISE = 2.1629e-14
+ NE = 0.841          BR = 92.296       NR = 0.43618
+ VAR = 1.7871        IKR = 0.012843    ISC = 7.8447e-18
+ NC = 1.6            RB = 0.75304      IRB = 6.1674e-05
+ RBM = 4.1356        RE = 0.15908      RC = 0.10833
+ CJE = 1.7699e-14    VJE = 0.84843     MJE = 0.48212
+ TF = 5.311e-11      XTF = 0.65766     VTF = 0.10323
+ ITF = 0.010453      PTF = 0           CJC = 3.5856e-12
+ VJC = 0.71631       MJC = 0.40003     XCJC = 0.063742
+ TR = 9.7481e-10     CJS= 0            VJS = 0.75
+ MJS = 0             XTB = 0           EG = 1.11
+ XTI = 3             FC = 0.90755)
***************************************************************
.MODEL BFP194 PNP(
+ IS = 4.574e-15      BF = 111.78       NF = 0.66503
+ VAF = 9.1007        IKF = 0.84785     ISE = 2.1629e-14
+ NE = 0.841          BR = 92.296       NR = 0.43618
+ VAR = 1.7871        IKR = 0.012843    ISC = 7.8447e-18
+ NC = 1.6            RB = 0.75304      IRB = 6.1674e-05
+ RBM = 4.1356        RE = 0.15908      RC = 0.10833
+ CJE = 1.7699e-14    VJE = 0.84843     MJE = 0.48212
+ TF = 5.311e-11      XTF = 0.65766     VTF = 0.10323
+ ITF = 0.010453      PTF = 0           CJC = 3.5856e-12
+ VJC = 0.71631       MJC = 0.40003     XCJC = 0.063742
+ TR = 9.7481e-10     CJS= 0            VJS = 0.75
+ MJS = 0             XTB = 0           EG = 1.11
+ XTI = 3             FC = 0.90755)
***************************************************************
.MODEL BFT92W PNP(
+ IS = 4.5354e-15     BF = 98.533       NF = 0.90551
+ VAF = 10.983        IKF = 0.016123    ISE = 1.2196e-14
+ NE = 1.1172         BR = 10.297       NR = 1.2703
+ VAR = 47.577        IKR = 0.019729    ISC = 2.4709e-17
+ NC = 1.206          RB = 7.9562       IRB = 0.00079584
+ RBM = 1.5939        RE = 1.5119       RC = 0.66749
+ CJE = 1.7785e-15    VJE = 0.79082     MJE = 0.32167
+ TF = 3.2171e-11     XTF = 0.30227     VTF = 0.21451
+ ITF = 1.3277e-05    PTF = 0           CJC = 9.2207e-13
+ VJC = 1.2           MJC = 0.3         XCJC = 0.3
+ TR = 2.0779e-09     CJS= 0            VJS = 0.75
+ MJS = 0             XTB = 0           EG = 1.11
+ XTI = 3             FC = 0.75167)
***************************************************************
.MODEL BFT92 PNP(
+ IS = 4.5354e-15     BF = 98.533       NF = 0.90551
+ VAF = 10.983        IKF = 0.016123    ISE = 1.2196e-14
+ NE = 1.1172         BR = 10.297       NR = 1.2703
+ VAR = 47.577        IKR = 0.019729    ISC = 2.4709e-17
+ NC = 1.206          RB = 7.9562       IRB = 0.00079584
+ RBM = 1.5939        RE = 1.5119       RC = 0.66749
+ CJE = 1.7785e-15    VJE = 0.79082     MJE = 0.32167
+ TF = 3.2171e-11     XTF = 0.30227     VTF = 0.21451
+ ITF = 1.3277e-05    PTF = 0           CJC = 9.2207e-13
+ VJC = 1.2           MJC = 0.3         XCJC = 0.3
+ TR = 2.0779e-09     CJS= 0            VJS = 0.75
+ MJS = 0             XTB = 0           EG = 1.11
+ XTI = 3             FC = 0.75167)
***************************************************************
.MODEL BFT93 PNP(
+ IS = 1.0366e-15     BF = 80           NF = 1.0313
+ VAF = 8.4866        IKF = 0.47497     ISE = 1.6295e-14
+ NE = 1.3702         BR = 16.116       NR = 1.2907
+ VAR = 9.5149        IKR = 0.012081    ISC = 9.4971e-17
+ NC = 1.038          RB = 3.2133       IRB = 0.00046855
+ RBM = 2.0822        RE = 1.9597       RC = 1.1393
+ CJE = 2.0636e-14    VJE = 0.84456     MJE = 0.68352
+ TF = 5.4303e-11     XTF = 0.27447     VTF = 0.19311
+ ITF = 0.0030573     PTF = 0           CJC = 2.6904e-12
+ VJC = 1.0282        MJC = 0.5401      XCJC = 0.075977
+ TR = 3.4233e-10     CJS= 0            VJS = 0.75
+ MJS = 0             XTB = 0           EG = 1.11
+ XTI = 3             FC = 0.54298)
***************************************************************
