* TL031 OPERATIONAL AMPLIFIER "MACROMODEL" SUBCIRCUIT
* CREATED USING PARTS RELEASE 4.03 ON 07/19/90 AT 08:34
* REV (N/A)      SUPPLY VOLTAGE: +/-5V
* CONNECTIONS:   NON-INVERTING INPUT
*                | INVERTING INPUT
*                | | POSITIVE POWER SUPPLY
*                | | | NEGATIVE POWER SUPPLY
*                | | | | OUTPUT
*                | | | | |
.SUBCKT TL031    1 2 3 4 5
*
  C1   11 12 3.072E-12
  C2    6  7 20.00E-12
  CSS  10 99 19.00E-12
  DC    5 53 DX
  DE   54  5 DX
  DLP  90 91 DX
  DLN  92 90 DX
  DP    4  3 DX
  EGND 99  0 POLY(2) (3,0) (4,0) 0 .5 .5
  FB 7 99 POLY(5) VB VC VE VLP VLN 0 6.475E5 -1E6 1E6 1E6 -1E6
  GA    6  0 11 12 70.37E-6
  GCM 0  6 10 99 6.664E-9
  ISS   3 10 DC 78.00E-6
  HLIM 90  0 VLIM 1K
  J1   11  2 10 JX
  J2   12  1 10 JX
  R2    6  9 100.0E3
  RD1   4 11 14.21E3
  RD2   4 12 14.21E3
  RO1   8  5 135
  RO2   7 99 135
  RP    3  4 52.08E3
  RSS  10 99 2.564E6
  VB    9  0 DC 0
  VC 3 53 DC 1.350
  VE   54  4 DC 1.450
  VLIM  7  8 DC 0
  VLP  91  0 DC 8
  VLN   0 92 DC 8
.MODEL DX D(IS=800.0E-18)
.MODEL JX PJF(IS=1.000E-12 BETA=127.0E-6 VTO=-.515)
.ENDS
* TL032 OPERATIONAL AMPLIFIER "MACROMODEL" SUBCIRCUIT
* CREATED USING PARTS RELEASE 4.03 ON 07/19/90 AT 08:34
* REV (N/A)      SUPPLY VOLTAGE: +/-5V
* CONNECTIONS:   NON-INVERTING INPUT
*                | INVERTING INPUT
*                | | POSITIVE POWER SUPPLY
*                | | | NEGATIVE POWER SUPPLY
*                | | | | OUTPUT
*                | | | | |
.SUBCKT TL032    1 2 3 4 5
*
  C1   11 12 3.072E-12
  C2    6  7 20.00E-12
  CSS  10 99 19.00E-12
  DC    5 53 DX
  DE   54  5 DX
  DLP  90 91 DX
  DLN  92 90 DX
  DP    4  3 DX
  EGND 99  0 POLY(2) (3,0) (4,0) 0 .5 .5
  FB 7 99 POLY(5) VB VC VE VLP VLN 0 6.475E5 -1E6 1E6 1E6 -1E6
  GA    6  0 11 12 70.37E-6
  GCM 0  6 10 99 6.664E-9
  ISS   3 10 DC 78.00E-6
  HLIM 90  0 VLIM 1K
  J1   11  2 10 JX
  J2   12  1 10 JX
  R2    6  9 100.0E3
  RD1   4 11 14.21E3
  RD2   4 12 14.21E3
  RO1   8  5 135
  RO2   7 99 135
  RP    3  4 52.08E3
  RSS  10 99 2.564E6
  VB    9  0 DC 0
  VC 3 53 DC 1.350
  VE   54  4 DC 1.450
  VLIM  7  8 DC 0
  VLP  91  0 DC 8
  VLN   0 92 DC 8
.MODEL DX D(IS=800.0E-18)
.MODEL JX PJF(IS=1.000E-12 BETA=127.0E-6 VTO=-.515)
.ENDS
* TL034 OPERATIONAL AMPLIFIER "MACROMODEL" SUBCIRCUIT
* CREATED USING PARTS RELEASE 4.03 ON 07/19/90 AT 08:34
* REV (N/A)      SUPPLY VOLTAGE: +/-5V
* CONNECTIONS:   NON-INVERTING INPUT
*                | INVERTING INPUT
*                | | POSITIVE POWER SUPPLY
*                | | | NEGATIVE POWER SUPPLY
*                | | | | OUTPUT
*                | | | | |
.SUBCKT TL034    1 2 3 4 5
*
  C1   11 12 3.072E-12
  C2    6  7 20.00E-12
  CSS  10 99 19.00E-12
  DC    5 53 DX
  DE   54  5 DX
  DLP  90 91 DX
  DLN  92 90 DX
  DP    4  3 DX
  EGND 99  0 POLY(2) (3,0) (4,0) 0 .5 .5
  FB 7 99 POLY(5) VB VC VE VLP VLN 0 6.475E5 -1E6 1E6 1E6 -1E6
  GA    6  0 11 12 70.37E-6
  GCM 0  6 10 99 6.664E-9
  ISS   3 10 DC 78.00E-6
  HLIM 90  0 VLIM 1K
  J1   11  2 10 JX
  J2   12  1 10 JX
  R2    6  9 100.0E3
  RD1   4 11 14.21E3
  RD2   4 12 14.21E3
  RO1   8  5 135
  RO2   7 99 135
  RP    3  4 52.08E3
  RSS  10 99 2.564E6
  VB    9  0 DC 0
  VC 3 53 DC 1.350
  VE   54  4 DC 1.450
  VLIM  7  8 DC 0
  VLP  91  0 DC 8
  VLN   0 92 DC 8
.MODEL DX D(IS=800.0E-18)
.MODEL JX PJF(IS=1.000E-12 BETA=127.0E-6 VTO=-.515)
.ENDS
* TL051 OPERATIONAL AMPLIFIER "MACROMODEL" SUBCIRCUIT
* CREATED USING PARTS RELEASE 4.03 ON 07/19/90 AT 12:14
* REV (N/A)      SUPPLY VOLTAGE: +/-5V
* CONNECTIONS:   NON-INVERTING INPUT
*                | INVERTING INPUT
*                | | POSITIVE POWER SUPPLY
*                | | | NEGATIVE POWER SUPPLY
*                | | | | OUTPUT
*                | | | | |
.SUBCKT TL051    1 2 3 4 5
*
  C1   11 12 3.009E-12
  C2    6  7 20.00E-12
  DC    5 53 DX
  DE   54  5 DX
  DLP  90 91 DX
  DLN  92 90 DX
  DP    4  3 DX
  EGND 99  0 POLY(2) (3,0) (4,0) 0 .5 .5
  FB 7 99 POLY(5) VB VC VE VLP VLN 0 1.173E6 -1E6 1E6 1E6 -1E6
  GA    6  0 11 12 226.2E-6
  GCM 0  6 10 99 25.97E-9
  ISS   3 10 DC 330.0E-6
  HLIM 90  0 VLIM 1K
  J1   11  2 10 JX
  J2   12  1 10 JX
  R2    6  9 100.0E3
  RD1   4 11 4.421E3
  RD2   4 12 4.421E3
  RO1   8  5 125
  RO2   7 99 125
  RP    3  4 15.38E3
  RSS  10 99 606.1E3
  VB    9  0 DC 0
  VC    3 53 DC 1.500
  VE   54  4 DC 2.200
  VLIM  7  8 DC 0
  VLP  91  0 DC 28
  VLN   0 92 DC 28
.MODEL DX D(IS=800.0E-18)
.MODEL JX PJF(IS=10.00E-12 BETA=310.1E-6 VTO=-.75)
.ENDS
* TL052 OPERATIONAL AMPLIFIER "MACROMODEL" SUBCIRCUIT
* CREATED USING PARTS RELEASE 4.03 ON 07/19/90 AT 12:14
* REV (N/A)      SUPPLY VOLTAGE: +/-5V
* CONNECTIONS:   NON-INVERTING INPUT
*                | INVERTING INPUT
*                | | POSITIVE POWER SUPPLY
*                | | | NEGATIVE POWER SUPPLY
*                | | | | OUTPUT
*                | | | | |
.SUBCKT TL052    1 2 3 4 5
*
  C1   11 12 3.009E-12
  C2    6  7 20.00E-12
  DC    5 53 DX
  DE   54  5 DX
  DLP  90 91 DX
  DLN  92 90 DX
  DP    4  3 DX
  EGND 99  0 POLY(2) (3,0) (4,0) 0 .5 .5
  FB 7 99 POLY(5) VB VC VE VLP VLN 0 1.173E6 -1E6 1E6 1E6 -1E6
  GA    6  0 11 12 226.2E-6
  GCM 0  6 10 99 25.97E-9
  ISS   3 10 DC 330.0E-6
  HLIM 90  0 VLIM 1K
  J1   11  2 10 JX
  J2   12  1 10 JX
  R2    6  9 100.0E3
  RD1   4 11 4.421E3
  RD2   4 12 4.421E3
  RO1   8  5 125
  RO2   7 99 125
  RP    3  4 15.38E3
  RSS  10 99 606.1E3
  VB    9  0 DC 0
  VC    3 53 DC 1.500
  VE   54  4 DC 2.200
  VLIM  7  8 DC 0
  VLP  91  0 DC 28
  VLN   0 92 DC 28
.MODEL DX D(IS=800.0E-18)
.MODEL JX PJF(IS=10.00E-12 BETA=310.1E-6 VTO=-.75)
.ENDS
* TL054 OPERATIONAL AMPLIFIER "MACROMODEL" SUBCIRCUIT
* CREATED USING PARTS RELEASE 4.03 ON 07/19/90 AT 12:14
* REV (N/A)      SUPPLY VOLTAGE: +/-5V
* CONNECTIONS:   NON-INVERTING INPUT
*                | INVERTING INPUT
*                | | POSITIVE POWER SUPPLY
*                | | | NEGATIVE POWER SUPPLY
*                | | | | OUTPUT
*                | | | | |
.SUBCKT TL054    1 2 3 4 5
*
  C1   11 12 3.009E-12
  C2    6  7 20.00E-12
  DC    5 53 DX
  DE   54  5 DX
  DLP  90 91 DX
  DLN  92 90 DX
  DP    4  3 DX
  EGND 99  0 POLY(2) (3,0) (4,0) 0 .5 .5
  FB 7 99 POLY(5) VB VC VE VLP VLN 0 1.173E6 -1E6 1E6 1E6 -1E6
  GA    6  0 11 12 226.2E-6
  GCM 0  6 10 99 25.97E-9
  ISS   3 10 DC 330.0E-6
  HLIM 90  0 VLIM 1K
  J1   11  2 10 JX
  J2   12  1 10 JX
  R2    6  9 100.0E3
  RD1   4 11 4.421E3
  RD2   4 12 4.421E3
  RO1   8  5 125
  RO2   7 99 125
  RP    3  4 15.38E3
  RSS  10 99 606.1E3
  VB    9  0 DC 0
  VC    3 53 DC 1.500
  VE   54  4 DC 2.200
  VLIM  7  8 DC 0
  VLP  91  0 DC 28
  VLN   0 92 DC 28
.MODEL DX D(IS=800.0E-18)
.MODEL JX PJF(IS=10.00E-12 BETA=310.1E-6 VTO=-.75)
.ENDS
* TLC1078 OPERATIONAL AMPLIFIER "MACROMODEL" SUBCIRCUIT
* CREATED USING PARTS RELEASE 4.01 ON 08/06/90 AT 13:58
* REV (A)        SUPPLY VOLTAGE: 10V
* CONNECTIONS:   NON-INVERTING INPUT
*                | INVERTING INPUT
*                | | POSITIVE POWER SUPPLY
*                | | | NEGATIVE POWER SUPPLY
*                | | | | OUTPUT
*                | | | | |
.SUBCKT TLC1078  1 2 3 4 5
*
  C1   11 12 14.602E-12
  C2    6  7 15.00E-12
  DC    5 53 DX
  DE   54  5 DX
  DLP  90 91 DX
  DLN  92 90 DX
  DP    4  3 DX
  EGND 99  0 POLY(2) (3,0) (4,0) 0 .5 .5
  FB    7 99 POLY(5) VB VC VE VLP VLN 0 522.8E6 -500E6 500E6 500E6 -500E6
  GA    6  0 11 12 21.68E-6
  GCM 0  6 10 99 313.1E-12
  ISS   3 10 DC 705.0E-9
  HLIM 90  0 VLIM 1K
  J1   11  2 10 JX
  J2   12  1 10 JX
  R2    6  9 100.0E3
  RD1 60 11 46.13E3
  RD2 60 12 46.13E3
  RO1   8  5 75
  RO2   7 99 75
  RP    3  4 689.7E3
  RSS  10 99 283.7E6
  VAD  60 4 -.5
  VB    9  0 DC 0
  VC 3 53 DC 1.600
  VE   54  4 DC 0.540
  VLIM  7  8 DC 0
  VLP  91  0 DC 25
  VLN   0 92 DC 25
.MODEL DX D(IS=800.0E-18)
.MODEL JX PJF(IS=350.0E-15 BETA=340E-6 VTO=.039)
.ENDS
* TLC1079 OPERATIONAL AMPLIFIER "MACROMODEL" SUBCIRCUIT
* CREATED USING PARTS RELEASE 4.01 ON 08/06/90 AT 16:01
* REV (A)        SUPPLY VOLTAGE: 10V
* CONNECTIONS:   NON-INVERTING INPUT
*                | INVERTING INPUT
*                | | POSITIVE POWER SUPPLY
*                | | | NEGATIVE POWER SUPPLY
*                | | | | OUTPUT
*                | | | | |
.SUBCKT TLC1079  1 2 3 4 5
*
  C1   11 12 8.002E-12
  C2    6  7 15.00E-12
  DC    5 53 DX
  DE   54  5 DX
  DLP  90 91 DX
  DLN  92 90 DX
  DP    4  3 DX
  EGND 99  0 POLY(2) (3,0) (4,0) 0 .5 .5
  FB    7 99 POLY(5) VB VC VE VLP VLN 0 975.8E6 -1E9 1E9 1E9 -1E9
  GA    6  0 11 12 10.37E-6
  GCM 0  6 10 99 221.9E-12
  ISS   3 10 DC 600.0E-9
  HLIM 90  0 VLIM 1K
  J1   11  2 10 JX
  J2   12  1 10 JX
  R2    6  9 100.0E3
  RD1 60 11 96.45E3
  RD2 60 12 96.45E3
  RO1   8  5 85
  RO2   7 99 85
  RP    3  4 689.7E3
  RSS  10 99 333.3E6
  VAD  60 4 -.5
  VB    9  0 DC 0
  VC 3 53 DC 1.650
  VE   54  4 DC .53
  VLIM  7  8 DC 0
  VLP  91  0 DC 20
  VLN   0 92 DC 20
.MODEL DX D(IS=800.0E-18)
.MODEL JX PJF(IS=350.0E-15 BETA=200E-6 VTO=.032)
.ENDS
* TLC2274 OPERATIONAL AMPLIFIER "MACROMODEL" SUBCIRCUIT
* CREATED USING PARTS RELEASE 4.03 ON 10/29/91 AT 11:26
* REV (N/A)      SUPPLIES +/-5V
* CONNECTIONS:   NON-INVERTING INPUT
*                | INVERTING INPUT
*                | | POSITIVE POWER SUPPLY
*                | | | NEGATIVE POWER SUPPLY
*                | | | | OUTPUT
*                | | | | |
.SUBCKT TLC2274  1 2 3 4 5
*
  C1   11 12 14E-12
  C2    6  7 60.00E-12
  DC    5 53 DX
  DE   54  5 DX
  DLP  90 91 DX
  DLN  92 90 DX
  DP    4  3 DX
  EGND 99  0 POLY(2) (3,0) (4,0) 0 .5 .5
  FB 7 99 POLY(5) VB VC VE VLP VLN 0 130E4 -1E6 1E6 1E6 -1E6
  GA 6  0 11 12 452.4E-6
  GCM 0  6 10 99 50.44E-9
  ISS   3 10 DC 228.0E-6
  HLIM 90  0 VLIM 1K
  J1   11  2 10 JX
  J2   12  1 10 JX
  R2    6  9 100.0E3
  RD1 60 11 2.210E3
  RD2 60 12 2.210E3
  RO1   8  5 50
  RO2   7 99 50
  RP    3  4 8.696E3
  RSS  10 99 877.2E3
  VAD  60  4  -.5
  VB    9  0 DC 0
  VC 3 53 DC .789
  VE   54  4 DC .789
  VLIM  7  8 DC 0
  VLP  91  0 DC 2.4
  VLN 0 92 DC 9.6
.MODEL DX D(IS=800.0E-18)
.MODEL JX PJF(IS=1.500E-12 BETA=1.795E-3 VTO=-.22)
.ENDS
* TLC251H OPERATIONAL AMPLIFIER "MACROMODEL" SUBCIRCUIT
* CREATED USING PARTS RELEASE 4.03 ON 08/06/90 AT 13:32
* REV (B)        SUPPLY VOLTAGE: 10V
* CONNECTIONS:   NON-INVERTING INPUT
*                | INVERTING INPUT
*                | | POSITIVE POWER SUPPLY
*                | | | NEGATIVE POWER SUPPLY
*                | | | | OUTPUT
*                | | | | |
.SUBCKT TLC251H  1 2 3 4 5
*
  C1   11 12 2.591E-12
  C2    6  7 20.00E-12
  DC    5 53 DX
  DE   54  5 DX
  DLP  90 91 DX
  DLN  92 90 DX
  DP    4  3 DX
  EGND 99  0 POLY(2) (3,0) (4,0) 0 .5 .5
  FB 7 99 POLY(5) VB VC VE VLP VLN 0 1.635E6 -4E6 4E6 4E6 -4E6
  GA    6  0 11 12 163.4E-6
  GCM 0  6 10 99 13.04E-9
  ISS   3 10 DC 90.00E-6
  HLIM 90  0 VLIM 1K
  J1   11  2 10 JX
  J2   12  1 10 JX
  R2    6  9 100.0E3
  RD1 60 11 6.121E3
  RD2 60 12 6.121E3
  RO1 8  5 250
  RO2   7 99 75
  RP    3  4 10.00E3
  RSS  10 99 2.222E6
  VAD  60 4 -.8
  VB    9  0 DC 0
  VC 3 53 DC 1.35
  VE   54  4 DC 1.35
  VLIM  7  8 DC 0
  VLP  91  0 DC 15
  VLN   0 92 DC 15
.MODEL DX D(IS=800.0E-18)
.MODEL JX PJF(IS=500.0E-15 BETA=593.1E-6 VTO=-.2135)
.ENDS
* TLC251L (LOW BIAS) OPERATIONAL AMPLIFIER "MACROMODEL" SUBCIRCUIT
* CREATED USING PARTS RELEASE 4.01 ON 08/07/90 AT 09:57
* REV (A)        SUPPLY VOLTAGE: 10V
* CONNECTIONS:   NON-INVERTING INPUT
*                | INVERTING INPUT
*                | | POSITIVE POWER SUPPLY
*                | | | NEGATIVE POWER SUPPLY
*                | | | | OUTPUT
*                | | | | |
.SUBCKT TLC251L  1 2 3 4 5
*
  C1   11 12 10.73E-12
  C2    6  7 20.00E-12
  DC    5 53 DX
  DE   54  5 DX
  DLP  90 91 DX
  DLN  92 90 DX
  DP    4  3 DX
  EGND 99  0 POLY(2) (3,0) (4,0) 0 .5 .5
  FB    7 99 POLY(5) VB VC VE VLP VLN 0 530.5E6 -500E6 500E6 500E6 -500E6
  GA    6  0 11 12 12.57E-6
  GCM 0  6 10 99 717.6E-12
  ISS   3 10 DC 800.0E-9
  HLIM 90  0 VLIM 1K
  J1   11  2 10 JX
  J2   12  1 10 JX
  R2    6  9 100.0E3
  RD1 60 11 79.57E3
  RD2 60 12 79.57E3
  RO1   8  5 75
  RO2   7 99 75
  RP    3  4 1.000E6
  RSS  10 99 250.0E6
  VAD  60 4 -.5
  VB    9  0 DC 0
  VC 3 53 DC 1.250
  VE   54  4 DC 1.250
  VLIM  7  8 DC 0
  VLP  91  0 DC 15
  VLN   0 92 DC 15
.MODEL DX D(IS=800.0E-18)
.MODEL JX PJF(IS=500.0E-15 BETA=197E-6 VTO=.017)
.ENDS
* TLC251M (MEDIUM BIAS) OPERATIONAL AMPLIFIER "MACROMODEL" SUBCIRCUIT
* CREATED USING PARTS RELEASE 4.01 ON 08/07/90 AT 16:08
* REV (A)        SUPPLY VOLTAGE: 10V
* CONNECTIONS:   NON-INVERTING INPUT
*                | INVERTING INPUT
*                | | POSITIVE POWER SUPPLY
*                | | | NEGATIVE POWER SUPPLY
*                | | | | OUTPUT
*                | | | | |
.SUBCKT TLC251M  1 2 3 4 5
*
  C1   11 12 10.73E-12
  C2    6  7 20.00E-12
  DC    5 53 DX
  DE   54  5 DX
  DLP  90 91 DX
  DLN  92 90 DX
  DP    4  3 DX
  EGND 99  0 POLY(2) (3,0) (4,0) 0 .5 .5
  FB    7 99 POLY(5) VB VC VE VLP VLN 0 42.44E6 -40E6 40E6 40E6 -40E6
  GA    6  0 11 12 87.97E-6
  GCM 0  6 10 99 4.252E-9
  ISS   3 10 DC 12.00E-6
  HLIM 90  0 VLIM 1K
  J1   11  2 10 JX
  J2   12  1 10 JX
  R2    6  9 100.0E3
  RD1 60 11 11.37E3
  RD2 60 12 11.37E3
  RO1   8  5 75
  RO2   7 99 75
  RP    3  4 72.46E3
  RSS  10 99 16.67E6
  VAD  60 4 -.5
  VB    9  0 DC 0
  VC 3 53 DC 1.300
  VE   54  4 DC 1.300
  VLIM  7  8 DC 0
  VLP  91  0 DC 15
  VLN   0 92 DC 15
.MODEL DX D(IS=800.0E-18)
.MODEL JX PJF(IS=500.0E-15 BETA=460E-6 VTO=-.053)
.ENDS
* TLC252C OPERATIONAL AMPLIFIER "MACROMODEL" SUBCIRCUIT
* CREATED USING PARTS RELEASE 4.03 ON 08/06/90 AT 13:32
* REV (B)        SUPPLY VOLTAGE: 10V
* CONNECTIONS:   NON-INVERTING INPUT
*                | INVERTING INPUT
*                | | POSITIVE POWER SUPPLY
*                | | | NEGATIVE POWER SUPPLY
*                | | | | OUTPUT
*                | | | | |
.SUBCKT TLC252C  1 2 3 4 5
*
  C1   11 12 2.591E-12
  C2    6  7 20.00E-12
  DC    5 53 DX
  DE   54  5 DX
  DLP  90 91 DX
  DLN  92 90 DX
  DP    4  3 DX
  EGND 99  0 POLY(2) (3,0) (4,0) 0 .5 .5
  FB 7 99 POLY(5) VB VC VE VLP VLN 0 1.635E6 -4E6 4E6 4E6 -4E6
  GA    6  0 11 12 163.4E-6
  GCM 0  6 10 99 13.04E-9
  ISS   3 10 DC 90.00E-6
  HLIM 90  0 VLIM 1K
  J1   11  2 10 JX
  J2   12  1 10 JX
  R2    6  9 100.0E3
  RD1 60 11 6.121E3
  RD2 60 12 6.121E3
  RO1 8  5 250
  RO2   7 99 75
  RP    3  4 10.00E3
  RSS  10 99 2.222E6
  VAD  60 4 -.8
  VB    9  0 DC 0
  VC 3 53 DC 1.35
  VE   54  4 DC 1.35
  VLIM  7  8 DC 0
  VLP  91  0 DC 15
  VLN   0 92 DC 15
.MODEL DX D(IS=800.0E-18)
.MODEL JX PJF(IS=500.0E-15 BETA=593.1E-6 VTO=-.2135)
.ENDS
* TLC254C OPERATIONAL AMPLIFIER "MACROMODEL" SUBCIRCUIT
* CREATED USING PARTS RELEASE 4.03 ON 08/06/90 AT 13:32
* REV (B)        SUPPLY VOLTAGE: 10V
* CONNECTIONS:   NON-INVERTING INPUT
*                | INVERTING INPUT
*                | | POSITIVE POWER SUPPLY
*                | | | NEGATIVE POWER SUPPLY
*                | | | | OUTPUT
*                | | | | |
.SUBCKT TLC254C  1 2 3 4 5
*
  C1   11 12 2.591E-12
  C2    6  7 20.00E-12
  DC    5 53 DX
  DE   54  5 DX
  DLP  90 91 DX
  DLN  92 90 DX
  DP    4  3 DX
  EGND 99  0 POLY(2) (3,0) (4,0) 0 .5 .5
  FB 7 99 POLY(5) VB VC VE VLP VLN 0 1.635E6 -4E6 4E6 4E6 -4E6
  GA    6  0 11 12 163.4E-6
  GCM 0  6 10 99 13.04E-9
  ISS   3 10 DC 90.00E-6
  HLIM 90  0 VLIM 1K
  J1   11  2 10 JX
  J2   12  1 10 JX
  R2    6  9 100.0E3
  RD1 60 11 6.121E3
  RD2 60 12 6.121E3
  RO1 8  5 250
  RO2   7 99 75
  RP    3  4 10.00E3
  RSS  10 99 2.222E6
  VAD  60 4 -.8
  VB    9  0 DC 0
  VC 3 53 DC 1.35
  VE   54  4 DC 1.35
  VLIM  7  8 DC 0
  VLP  91  0 DC 15
  VLN   0 92 DC 15
.MODEL DX D(IS=800.0E-18)
.MODEL JX PJF(IS=500.0E-15 BETA=593.1E-6 VTO=-.2135)
.ENDS
* TLC25L2C OPERATIONAL AMPLIFIER "MACROMODEL" SUBCIRCUIT
* CREATED USING PARTS RELEASE 4.01 ON 08/07/90 AT 09:57
* REV (A)        SUPPLY VOLTAGE: 10V
* CONNECTIONS:   NON-INVERTING INPUT
*                | INVERTING INPUT
*                | | POSITIVE POWER SUPPLY
*                | | | NEGATIVE POWER SUPPLY
*                | | | | OUTPUT
*                | | | | |
.SUBCKT TLC25L2C 1 2 3 4 5
*
  C1   11 12 10.73E-12
  C2    6  7 20.00E-12
  DC    5 53 DX
  DE   54  5 DX
  DLP  90 91 DX
  DLN  92 90 DX
  DP    4  3 DX
  EGND 99  0 POLY(2) (3,0) (4,0) 0 .5 .5
  FB    7 99 POLY(5) VB VC VE VLP VLN 0 530.5E6 -500E6 500E6 500E6 -500E6
  GA    6  0 11 12 12.57E-6
  GCM 0  6 10 99 717.6E-12
  ISS   3 10 DC 800.0E-9
  HLIM 90  0 VLIM 1K
  J1   11  2 10 JX
  J2   12  1 10 JX
  R2    6  9 100.0E3
  RD1 60 11 79.57E3
  RD2 60 12 79.57E3
  RO1   8  5 75
  RO2   7 99 75
  RP    3  4 1.000E6
  RSS  10 99 250.0E6
  VAD  60 4 -.5
  VB    9  0 DC 0
  VC 3 53 DC 1.250
  VE   54  4 DC 1.250
  VLIM  7  8 DC 0
  VLP  91  0 DC 15
  VLN   0 92 DC 15
.MODEL DX D(IS=800.0E-18)
.MODEL JX PJF(IS=500.0E-15 BETA=197E-6 VTO=.017)
.ENDS
* TLC25M2C (MEDIUM BIAS) OPERATIONAL AMPLIFIER "MACROMODEL" SUBCIRCUIT
* CREATED USING PARTS RELEASE 4.01 ON 08/07/90 AT 16:08
* REV (A)        SUPPLY VOLTAGE: 10V
* CONNECTIONS:   NON-INVERTING INPUT
*                | INVERTING INPUT
*                | | POSITIVE POWER SUPPLY
*                | | | NEGATIVE POWER SUPPLY
*                | | | | OUTPUT
*                | | | | |
.SUBCKT TLC25M2C 1 2 3 4 5
*
  C1   11 12 10.73E-12
  C2    6  7 20.00E-12
  DC    5 53 DX
  DE   54  5 DX
  DLP  90 91 DX
  DLN  92 90 DX
  DP    4  3 DX
  EGND 99  0 POLY(2) (3,0) (4,0) 0 .5 .5
  FB    7 99 POLY(5) VB VC VE VLP VLN 0 42.44E6 -40E6 40E6 40E6 -40E6
  GA    6  0 11 12 87.97E-6
  GCM 0  6 10 99 4.252E-9
  ISS   3 10 DC 12.00E-6
  HLIM 90  0 VLIM 1K
  J1   11  2 10 JX
  J2   12  1 10 JX
  R2    6  9 100.0E3
  RD1 60 11 11.37E3
  RD2 60 12 11.37E3
  RO1   8  5 75
  RO2   7 99 75
  RP    3  4 72.46E3
  RSS  10 99 16.67E6
  VAD  60 4 -.5
  VB    9  0 DC 0
  VC 3 53 DC 1.300
  VE   54  4 DC 1.300
  VLIM  7  8 DC 0
  VLP  91  0 DC 15
  VLN   0 92 DC 15
.MODEL DX D(IS=800.0E-18)
.MODEL JX PJF(IS=500.0E-15 BETA=460E-6 VTO=-.053)
.ENDS
* TLC25M4C (MEDIUM BIAS) OPERATIONAL AMPLIFIER "MACROMODEL" SUBCIRCUIT
* CREATED USING PARTS RELEASE 4.01 ON 08/07/90 AT 16:08
* REV (A)        SUPPLY VOLTAGE: 10V
* CONNECTIONS:   NON-INVERTING INPUT
*                | INVERTING INPUT
*                | | POSITIVE POWER SUPPLY
*                | | | NEGATIVE POWER SUPPLY
*                | | | | OUTPUT
*                | | | | |
.SUBCKT TLC25M4C 1 2 3 4 5
*
  C1   11 12 10.73E-12
  C2    6  7 20.00E-12
  DC    5 53 DX
  DE   54  5 DX
  DLP  90 91 DX
  DLN  92 90 DX
  DP    4  3 DX
  EGND 99  0 POLY(2) (3,0) (4,0) 0 .5 .5
  FB    7 99 POLY(5) VB VC VE VLP VLN 0 42.44E6 -40E6 40E6 40E6 -40E6
  GA    6  0 11 12 87.97E-6
  GCM 0  6 10 99 4.252E-9
  ISS   3 10 DC 12.00E-6
  HLIM 90  0 VLIM 1K
  J1   11  2 10 JX
  J2   12  1 10 JX
  R2    6  9 100.0E3
  RD1 60 11 11.37E3
  RD2 60 12 11.37E3
  RO1   8  5 75
  RO2   7 99 75
  RP    3  4 72.46E3
  RSS  10 99 16.67E6
  VAD  60 4 -.5
  VB    9  0 DC 0
  VC 3 53 DC 1.300
  VE   54  4 DC 1.300
  VLIM  7  8 DC 0
  VLP  91  0 DC 15
  VLN   0 92 DC 15
.MODEL DX D(IS=800.0E-18)
.MODEL JX PJF(IS=500.0E-15 BETA=460E-6 VTO=-.053)
.ENDS
* TLC2652 OPERATIONAL AMPLIFIER "MACROMODEL" SUBCIRCUIT
* CREATED USING PARTS RELEASE 4.03 ON 08/07/90 AT 10:36
* REV (B)        SUPPLY VOLTAGE: +/-5V
* CONNECTIONS:   NON-INVERTING INPUT
*                | INVERTING INPUT
*                | | POSITIVE POWER SUPPLY
*                | | | NEGATIVE POWER SUPPLY
*                | | | | OUTPUT
*                | | | | |
.SUBCKT TLC2652  1 2 3 4 5
*
  C1   11 12 3.804E-12
  C2    6  7 20.00E-12
  DC    5 53 DX
  DE   54  5 DX
  DLP  90 91 DX
  DLN  92 90 DX
  DP    4  3 DX
  EGND 99  0 POLY(2) (3,0) (4,0) 0 .5 .5
  FB 7 99 POLY(5) VB VC VE VLP VLN 0 1.342E9 -2E9 2E9 2E9 -2E9
  GA    6  0 11 12 125.7E-6
  GCM 0  6 10 99 25E-12
  ISS   3 10 DC 56.00E-6
  HLIM 90  0 VLIM 1K
  J1   11  2 10 JX
  J2   12  1 10 JX
  R2    6  9 100.0E3
  RD1 60 11 7.958E3
  RD2 60 12 7.958E3
  RO1   8  5 165
  RO2   7 99 165
  RP    3  4 6.667E3
  RSS  10 99 3.571E6
  VAD  60 4 -.7
  VB    9  0 DC 0
  VC 3 53 DC .84
  VE   54  4 DC .74
  VLIM  7  8 DC 0
  VLP  91  0 DC 3.100
  VLN   0 92 DC 3.100
.MODEL DX D(IS=800.0E-18)
.MODEL JX PJF(IS=500.0E-15 BETA=564.0E-6 VTO=-.183)
.ENDS
* TLC2654 OPERATIONAL AMPLIFIER "MACROMODEL" SUBCIRCUIT
* CREATED USING PARTS RELEASE 4.03 ON 08/07/90 AT 08:49
* REV (B)        SUPPLY VOLTAGE: +/-5V
* CONNECTIONS:   NON-INVERTING INPUT
*                | INVERTING INPUT
*                | | POSITIVE POWER SUPPLY
*                | | | NEGATIVE POWER SUPPLY
*                | | | | OUTPUT
*                | | | | |
.SUBCKT TLC2654  1 2 3 4 5
*
  C1   11 12 4.004E-12
  C2    6  7 20.00E-12
  DC    5 53 DX
  DE   54  5 DX
  DLP  90 91 DX
  DLN  92 90 DX
  DP    4  3 DX
  EGND 99  0 POLY(2) (3,0) (4,0) 0 .5 .5
  FB 7 99 POLY(5) VB VC VE VLP VLN 0 1.798E9 -1E9 1E9 1E9 -1E9
  GA    6  0 11 12 138.2E-6
  GCM 0  6 10 99 154.73E-12
  ISS   3 10 DC 40.00E-6
  HLIM 90  0 VLIM 1K
  J1   11  2 10 JX
  J2   12  1 10 JX
  R2    6  9 100.0E3
  RD1 60 11 7.234E3
  RD2 60 12 7.234E3
  RO1   8  5 165
  RO2   7 99 165
  RP    3  4 6.667E3
  RSS  10 99 5.000E6
  VAD  60 4 -.6
  VB    9  0 DC 0
  VC    3 53 DC .85
  VE   54  4 DC .75
  VLIM  7  8 DC 0
  VLP  91  0 DC 3.100
  VLN   0 92 DC 3.100
.MODEL DX D(IS=800.0E-18)
.MODEL JX PJF(IS=25.00E-12 BETA=955.4E-6 VTO=-.185)
.ENDS
* TLC277 OPERATIONAL AMPLIFIER "MACROMODEL" SUBCIRCUIT
* CREATED USING PARTS RELEASE 4.03 ON 08/09/90 AT 10:01
* REV (B)        SUPPLY VOLTAGE: 10V
* CONNECTIONS:   NON-INVERTING INPUT
*                | INVERTING INPUT
*                | | POSITIVE POWER SUPPLY
*                | | | NEGATIVE POWER SUPPLY
*                | | | | OUTPUT
*                | | | | |
.SUBCKT TLC277   1 2 3 4 5
*
  C1   11 12 4.693E-12
  C2    6  7 20.00E-12
  DC    5 53 DX
  DE   54  5 DX
  DLP  90 91 DX
  DLN  92 90 DX
  DP    4  3 DX
  EGND 99  0 POLY(2) (3,0) (4,0) 0 .5 .5
  FB 7 99 POLY(5) VB VC VE VLP VLN 0 1.221E6 -3E6 3E6 3E6 -3E6
  GA    6  0 11 12 175.9E-6
  GCM 0  6 10 99 19.786E-9
  ISS   3 10 DC 92.00E-6
  HLIM 90  0 VLIM 1K
  J1   11  2 10 JX
  J2   12  1 10 JX
  R2    6  9 100.0E3
  RD1 60 11 5.684E3
  RD2 60 12 5.684E3
  RO1   8  5 85
  RO2   7 99 85
  RP    3  4 10.53E3
  RSS  10 99 2.174E6
  VAD 60 4 -.8
  VB    9  0 DC 0
  VC 3 53 DC 2.140
  VE   54  4 DC .64
  VLIM  7  8 DC 0
  VLP  91  0 DC 20
  VLN   0 92 DC 20
.MODEL DX D(IS=800.0E-18)
.MODEL JX PJF(IS=350.0E-15 BETA=672.8E-6 VTO=-.1903)
.ENDS
* TLC279 OPERATIONAL AMPLIFIER "MACROMODEL" SUBCIRCUIT
* CREATED USING PARTS RELEASE 4.03 ON 08/09/90 AT 10:01
* REV (B)        SUPPLY VOLTAGE: 10V
* CONNECTIONS:   NON-INVERTING INPUT
*                | INVERTING INPUT
*                | | POSITIVE POWER SUPPLY
*                | | | NEGATIVE POWER SUPPLY
*                | | | | OUTPUT
*                | | | | |
.SUBCKT TLC279   1 2 3 4 5
*
  C1   11 12 4.693E-12
  C2    6  7 20.00E-12
  DC    5 53 DX
  DE   54  5 DX
  DLP  90 91 DX
  DLN  92 90 DX
  DP    4  3 DX
  EGND 99  0 POLY(2) (3,0) (4,0) 0 .5 .5
  FB 7 99 POLY(5) VB VC VE VLP VLN 0 1.221E6 -3E6 3E6 3E6 -3E6
  GA    6  0 11 12 175.9E-6
  GCM 0  6 10 99 19.786E-9
  ISS   3 10 DC 92.00E-6
  HLIM 90  0 VLIM 1K
  J1   11  2 10 JX
  J2   12  1 10 JX
  R2    6  9 100.0E3
  RD1 60 11 5.684E3
  RD2 60 12 5.684E3
  RO1   8  5 85
  RO2   7 99 85
  RP    3  4 10.53E3
  RSS  10 99 2.174E6
  VAD 60 4 -.8
  VB    9  0 DC 0
  VC 3 53 DC 2.140
  VE   54  4 DC .64
  VLIM  7  8 DC 0
  VLP  91  0 DC 20
  VLN   0 92 DC 20
.MODEL DX D(IS=800.0E-18)
.MODEL JX PJF(IS=350.0E-15 BETA=672.8E-6 VTO=-.1903)
.ENDS
* TLE2161 OPERATIONAL AMPLIFIER "MACROMODEL" SUBCIRCUIT
* CREATED USING PARTS RELEASE 4.03 ON 07/24/90 AT 13:55
* REV (N/A)      SUPPLY VOLTAGE: +/-5V
* CONNECTIONS:   NON-INVERTING INPUT
*                | INVERTING INPUT
*                | | POSITIVE POWER SUPPLY
*                | | | NEGATIVE POWER SUPPLY
*                | | | | OUTPUT
*                | | | | |
.SUBCKT TLE2161  1 2 3 4 5
*
  C1   11 12 6.640E-12
  C2    6  7 20.00E-12
  DC    5 53 DX
  DE   54  5 DX
  DLP  90 91 DX
  DLN  92 90 DX
  DP    4  3 DX
  EGND 99  0 POLY(2) (3,0) (4,0) 0 .5 .5
  FB 7 99 POLY(5) VB VC VE VLP VLN 0 784.0E3 -80E3 80E3 80E3 -80E3
  GA    6  0 11 12 377.0E-6
  GCM 0  6 10 99 60.05E-9
  HLIM 90  0 VLIM 1K
  ISS   3 10 DC 200.0E-6
  J1   11  2 10 JX
  J2   12  1 10 JX
  R2    6  9 100.0E3
  RD1 4 11 2.653E3
  RD2 4 12 2.653E3
  RO1   8  5 140
  RO2   7 99 140
  RP  3 4 125E3
  RSS  10 99 1.000E6
  VB    9  0 DC 0
  VC    3 53 DC 2
  VE   54  4 DC 1.800
  VLIM  7  8 DC 0
  VLP  91  0 DC 50
  VLN   0 92 DC 50
.MODEL DX D(IS=800.0E-18)
.MODEL JX PJF(IS=1.500E-12 BETA=1.421E-3 VTO=-.236)
.ENDS
* TLC2252 OPERATIONAL AMPLIFIER "MACROMODEL" SUBCIRCUIT
* CREATED USING PARTS RELEASE 4.03 ON 01/12/95 AT 08:26
* REV (N/A) (10V MODEL) (LEVEL II)
* CONNECTIONS:   NON-INVERTING INPUT
*                | INVERTING INPUT
*                | | POSITIVE POWER SUPPLY
*                | | | NEGATIVE POWER SUPPLY
*                | | | | OUTPUT
*                | | | | |
.SUBCKT TLC2252  1 2 3 4 5
*
  C1   11 12 6.043E-12
  C2    6  7 50.00E-12
  CPSR 85 86 7.96E-9
  DCM+ 81 82 DX
  DCM- 83 81 DX
  DC    5 53 DX
  DE   54  5 DX
  DLP  90 91 DX
  DLN  92 90 DX
  DP    4  3 DX
  ECMR 84 99 (2,99) 1
  EGND 99  0 POLY(2) (3,0) (4,0) 0 .5 .5
  EPSR 85 0 POLY(1) (3,4) -1736E-6  173.6E-6
  ENSE 89 2 POLY(1) (88,0) 200E-6  1
  FB 7 99 POLY(6) VB VC VE VLP VLN VPSR 0 200E6 -30E6 30E6 30E6 -30E6 30E6
  GA    6  0 11 12 28.27E-6
  GCM 0  6 10 99 2.635E-9
  GPSR 85 86 (85,86) 100E-6
  GRD1 60 11 (60,11) 28.273E-6
  GRD2 60 12 (60,12) 28.273E-6
  HLIM 90 0 VLIM 1K
  HCMR 80 1 POLY(2) VCM+ VCM- 0 1E2 1E2
  IRP 3 4 34E-6
  ISS   3 10 DC 6.000E-6
  IIO 2 0 .5E-12
  I1 88 0 1E-21
  J1   11  89 10 JX
  J2   12  80 10 JX
  R2    6  9 100.0E3
  RCM 84 81 1K
  RN1 88 0 100
  RO1   8  5 70
  RO2   7 99 50
  RSS  10 99 33.33E6
  VAD 60 4 -.5
  VCM+ 82 99 3.6
  VCM- 83 99 -4.7
  VB    9  0 DC 0
  VC 3 53 DC .656
  VE   54  4 DC .656
  VLIM  7  8 DC 0
  VLP  91  0 DC -.234
  VLN 0 92 DC 7.5
  VPSR 0 86 DC 0
.MODEL DX D(IS=800.0E-18)
.MODEL JX PJF(IS=500.0E-15 BETA=360E-6 VTO=-.023 KF=8.6E-18)
.ENDS
* TLC2254 OPERATIONAL AMPLIFIER "MACROMODEL" SUBCIRCUIT
* CREATED USING PARTS RELEASE 4.03 ON 01/12/95 AT 08:26
* REV (N/A) (10V MODEL) (LEVEL II)
* CONNECTIONS:   NON-INVERTING INPUT
*                | INVERTING INPUT
*                | | POSITIVE POWER SUPPLY
*                | | | NEGATIVE POWER SUPPLY
*                | | | | OUTPUT
*                | | | | |
.SUBCKT TLC2254  1 2 3 4 5
*
  C1   11 12 6.043E-12
  C2    6  7 50.00E-12
  CPSR 85 86 7.96E-9
  DCM+ 81 82 DX
  DCM- 83 81 DX
  DC    5 53 DX
  DE   54  5 DX
  DLP  90 91 DX
  DLN  92 90 DX
  DP    4  3 DX
  ECMR 84 99 (2,99) 1
  EGND 99  0 POLY(2) (3,0) (4,0) 0 .5 .5
  EPSR 85 0 POLY(1) (3,4) -1736E-6  173.6E-6
  ENSE 89 2 POLY(1) (88,0) 200E-6  1
  FB 7 99 POLY(6) VB VC VE VLP VLN VPSR 0 46.8E6 -30E6 30E6 30E6 -30E6 30E5
  GA    6  0 11 12 28.27E-6
  GCM 0  6 10 99 2.635E-9
  GPSR 85 86 (85,86) 100E-6
  GRD1 60 11 (60,11) 28.273E-6
  GRD2 60 12 (60,12) 28.273E-6
  HLIM 90 0 VLIM 1K
  HCMR 80 1 POLY(2) VCM+ VCM- 0 1E2 1E2
  IRP 3 4 34E-6
  ISS   3 10 DC 6.000E-6
  IIO 2 0 .5E-12
  I1 88 0 1E-21
  J1   11  89 10 JX
  J2   12  80 10 JX
  R2    6  9 100.0E3
  RCM 84 81 1K
  RN1 88 0 100
  RO1   8  5 70
  RO2   7 99 50
  RSS  10 99 33.33E6
  VAD 60 4 -.5
  VCM+ 82 99 3.6
  VCM- 83 99 -4.7
  VB    9  0 DC 0
  VC 3 53 DC .656
  VE   54  4 DC .656
  VLIM  7  8 DC 0
  VLP  91  0 DC -.234
  VLN 0 92 DC 7.5
  VPSR 0 86 DC 0
.MODEL DX D(IS=800.0E-18)
.MODEL JX PJF(IS=500.0E-15 BETA=360E-6 VTO=-.023 KF=8.6E-18)
.ENDS
* TLC2272 OPERATIONAL AMPLIFIER "MACROMODEL" SUBCIRCUIT
* CREATED USING PARTS RELEASE 4.03 ON 10/29/91 AT 11:26
* REV (N/A)      SUPPLIES +/-5V
* CONNECTIONS:   NON-INVERTING INPUT
*                | INVERTING INPUT
*                | | POSITIVE POWER SUPPLY
*                | | | NEGATIVE POWER SUPPLY
*                | | | | OUTPUT
*                | | | | |
.SUBCKT TLC2272  1 2 3 4 5
*
  C1   11 12 14E-12
  C2    6  7 60.00E-12
  CPSR 85  86  159.2E-9
  DCM+ 81 82 DX
  DCM- 83 81 DX
  DC    5 53 DX
  DE   54  5 DX
  DLP  90 91 DX
  DLN  92 90 DX
  DP    4  3 DX
  ECMR 84 99 (2,99) 1
  EGND 99  0 POLY(2) (3,0) (4,0) 0 .5 .5
  EPSR 85 0 POLY(1) (3,4) -900E-6  90E-6
  ENSE 89 2 POLY(1) (88,0) .4E-3  1
  FB 7 99 POLY(6) VB VC VE VLP VLN VPSR 0 130E4 -1E6 1E6 1E6 -1E6 130E4
  GA 6  0 11 12 452.4E-6
  GCM 0  6 10 99 50.44E-9
  GPSR 85 86 (85,86) 100E-6
  GRD1 60 11 (60,11) 4.525E-4
  GRD2 60 12 (60,12) 4.525E-4
  HLIM 90  0 VLIM 1K
  HCMR 80 1 POLY(2) VCM+ VCM- 0 1E2 1E2
  IRP 3 4 922E-6
  ISS   3 10 DC 228.0E-6
  IIO 2 0 5E-12
  I1 88 0 1E-21
  J1   11  89 10 JX
  J2   12  80 10 JX
  R2    6  9 100.0E3
  RCM 84 81 1K
  RN1 88 0 3100
  RO1   8  5 50
  RO2   7 99 50
  RSS  10 99 877.2E3
  VAD  60  4  -.5
  VCM+ 82 99 3.4
  VCM- 83 99 -4.4
  VB    9  0 DC 0
  VC 3 53 DC .789
  VE   54  4 DC .789
  VLIM  7  8 DC 0
  VLP  91  0 DC 2.4
  VLN 0 92 DC 9.6
  VPSR 0 86 DC 0
.MODEL DX D(IS=800.0E-18)
.MODEL JX PJF(IS=1.500E-12 BETA=1.795E-3 VTO=-.21 KF=8.8E-17)
.ENDS
* TLC25L4C (LOW BIAS) OPERATIONAL AMPLIFIER "MACROMODEL" SUBCIRCUIT
* CREATED USING PARTS RELEASE 4.01 ON 07/03/90 AT 09:57
* REV (N/A)      SUPPLY VOLTAGE: +/-5V
* CONNECTIONS:   NON-INVERTING INPUT
*                | INVERTING INPUT
*                | | POSITIVE POWER SUPPLY
*                | | | NEGATIVE POWER SUPPLY
*                | | | | OUTPUT
*                | | | | |
.SUBCKT TLC25L4C 1 2 3 4 5
*
  C1   11 12 10.73E-12
  C2    6  7 20.00E-12
  CPSR 85 86 79.6E-9
  DCM+ 81 82 DX
  DCM- 83 81 DX
  DC    5 53 DX
  DE   54  5 DX
  DLP  90 91 DX
  DLN  92 90 DX
  DP    4  3 DX
  ECMR 84 99 (2,99)  1
  EGND 99  0 POLY(2) (3,0) (4,0) 0 .5 .5
  EPSR 85 0 POLY(1) (3,4) -71E-6  7.1E-6
  ENSE 89 2 POLY(1) (88,0) 1.1E-3  1
  FB 7 99 POLY(6) VB VC VE VLP VLN VPSR 0 399.7E6 -50E7 50E7 50E7 -50E7 399E6
  GA    6  0 11 12 12.57E-6
  GCM 0  6 10 99 716.3E-12
  GPSR 85 86 (85,86) 100E-6
  GRD1 60 11 (60,11) 1.257E-5