* Copyright 1994 by Analog Devices, Inc.
*
*AD8001A SPICE Macro Model       9/94, Rev. A
* AAG/ADSC
*
* Copyright 1994 by Analog Devices, Inc.
*
* Refer to the "README.DOC" file for License Statement.  Use of this model
* indicates your acceptance with the terms and provisions in the License
* Statement
*
* Node assignments
*               Non-inverting input
*               | Inverting input
*               | | Positive supply
*               | | | Negative supply
*               | | | | Output
*               | | | | |
.SUBCKT AD8001A 3 2 7 4 6
*
* INPUT STAGE
*
CIN 3 4 1.5E-12
GB1 7 3 POLY(1) 3 100 (3E-6,0.2E-6)
EOS 9 3 POLY(1) 23 100 (2E-3,1)
Q1 7 9 10 QN
I1 10 4 DC 2.568E-4
I2 7 11 DC 2.568E-4
Q2 4 9 11 QP
R1 7 14 1E3
V1 7 17 DC 6.96561E-2
D1 17 14 DX
Q3 14 11 15 QN
Q4 16 10 15 QP
R2 16 4 1E3
D2 16 18 DX
V2 18 4 DC 6.96561E-2
LIN- 15 2 0.1E-9
GB2 7 2 POLY(1) 3 100 (5E-6,0.3E-6)
CS1 7 2 0.03E-12
CS2 2 4 0.03E-12
*
* GAIN STAGE AND DOMINANT POLE AT 230 kHz
*
EREF 100 0 POLY(2) (7,0) (4,0) (0,0.5,0.5)
G1 100 19 7 14 1E-3
G2 19 100 16 4 1E-3
R3 19 100 1.24E6
C1 19 100 5.580468E-13
V3 7 20 DC 2.3747
D3 19 20 DX
D4 21 19 DX
V4 21 4 DC 2.3747
*
* COMMON-MODE REJECTION NETWORK WITH ZERO AT 22 MHz
*
ECM 100 22 3 100 19.95
RCM1 22 23 1E4
CCM 22 23 7.2343E-13
RCM2 23 100 1
*
* POLE AT 800 MHz
*
G4 100 24 19 100 1E-6
R5 24 100 1E6
C3 24 100 1.9894368E-16
*
* POLE AT 4 GHz
*
G5 100 25 24 100 1E-6
R6 25 100 1E6
C4 25 100 3.9788736E-17
*
* OUTPUT STAGE
*
VW 25 30 DC 0
*
FSY 7 4 POLY(2) VSY1 VSY2 (4.2326E-3,1,1)
GSY 100 35 33 30 4.6728972E-2
DSY1 35 36 DX
VSY1 36 100 DC 0
DSY2 37 35 DX
VSY2 100 37 DC 0
DSC1 30 31 DX
VSC1 31 33 DC 0.62526
DSC2 32 30 DX
VSC2 33 32 DC 0.62526
GO1 33 7 7 30 4.6728972E-2
RO1 7 33 21.4
GO2 4 33 30 4 4.6728972E-2
RO2 33 4 21.4
LO 33 6 7E-9
*
.MODEL QN NPN(BF=100 IS=1E-15)
.MODEL QP PNP(BF=100 IS=1E-15)
.MODEL DX D(IS=1E-15)
*
.ENDS AD8001A
*AD8001AN SPICE Macro Model       9/94, Rev. A
*                                 AAG/ADSC
*
* This version of the AD8001 model simulates the worst case 
* parameters of the 'A' grade in the N package (PDIP).  The worst case
* parameters used correspond to those in the data sheet.
* This model was developed using the +-5V specifications.
*
* Copyright 1994 by Analog Devices, Inc.
*
* Refer to the "README.DOC" file for License Statement.  Use of this model
* indicates your acceptance with the terms and provisions in the License
* Statement
*
* Node assignments
*                Non-inverting input
*                | Inverting input
*                | | Positive supply
*                | | | Negative supply
*                | | | | Output
*                | | | | |
.SUBCKT AD8001AN 3 2 7 4 6
*
* INPUT STAGE
*
CIN 3 4 1.5E-12
GB1 7 3 POLY(1) 3 100 (6E-6,0.3E-6)
EOS 9 3 POLY(1) 23 100 (5E-3,1)
Q1 7 9 10 QN
I1 10 4 DC 2.568E-4
I2 7 11 DC 2.568E-4
Q2 4 9 11 QP
R1 7 14 1E3
V1 7 17 DC -6.34541E-2
D1 17 14 DX
Q3 14 11 15 QN
Q4 16 10 15 QP
R2 16 4 1E3
D2 16 18 DX
V2 18 4 DC -6.34541E-2
LIN- 15 2 0.1E-9
GB2 7 2 POLY(1) 3 100 (25E-6,1E-6)
CS1 7 2 0.03E-12
CS2 2 4 0.03E-12
*
* GAIN STAGE AND DOMINANT POLE AT 891 kHz
*
EREF 100 0 POLY(2) (7,0) (4,0) (0,0.5,0.5)
G1 100 19 7 14 1E-3
G2 19 100 16 4 1E-3
R3 19 100 3.196E5
C1 19 100 5.58902E-13
V3 7 20 DC 2.8108
D3 19 20 DX
D4 21 19 DX
V4 21 4 DC 2.8108
*
* COMMON-MODE REJECTION NETWORK WITH ZERO AT 34.87 MHz
*
ECM 100 22 3 100 31.668
RCM1 22 23 1E4
CCM 22 23 4.56424E-13
RCM2 23 100 1
*
* POLE AT 800 MHz
*
G4 100 24 19 100 1E-6
R5 24 100 1E6
C3 24 100 1.9894368E-16
*
* POLE AT 4 GHz
*
G5 100 25 24 100 1E-6
R6 25 100 1E6
C4 25 100 3.9788736E-17
*
* OUTPUT STAGE
*
VW 25 30 DC 0
*
FSY 7 4 POLY(2) VSY1 VSY2 (4.7326E-3,1,1)
GSY 100 35 33 30 4.6728972E-2
DSY1 35 36 DX
VSY1 36 100 DC 0
DSY2 37 35 DX
VSY2 100 37 DC 0
DSC1 30 31 DX
VSC1 31 33 DC 0.3615
DSC2 32 30 DX
VSC2 33 32 DC 0.3615
GO1 33 7 7 30 4.6728972E-2
RO1 7 33 21.4
GO2 4 33 30 4 4.6728972E-2
RO2 33 4 21.4
LO 33 6 7E-9
*
.MODEL QN NPN(BF=100 IS=1E-15)
.MODEL QP PNP(BF=100 IS=1E-15)
.MODEL DX D(IS=1E-15)
*
.ENDS AD8001AN
*AD8001AR SPICE Macro Model       9/94, Rev. A
*                                 AAG/ADSC
*
* This version of the AD8001 model simulates the worst case 
* parameters of the 'A' grade in the R package (SOIC).  The worst case
* parameters used correspond to those in the data sheet.
* This model was developed using the +-5V specifications.
*
* Copyright 1994 by Analog Devices, Inc.
*
* Refer to the "README.DOC" file for License Statement.  Use of this model
* indicates your acceptance with the terms and provisions in the License
* Statement
*
* Node assignments
*                Non-inverting input
*                | Inverting input
*                | | Positive supply
*                | | | Negative supply
*                | | | | Output
*                | | | | |
.SUBCKT AD8001AR 3 2 7 4 6
*
* INPUT STAGE
*
CIN 3 4 1.5E-12
GB1 7 3 POLY(1) 3 100 (6E-6,0.3E-6)
EOS 9 3 POLY(1) 23 100 (5E-3,1)
Q1 7 9 10 QN
I1 10 4 DC 2.568E-4
I2 7 11 DC 2.568E-4
Q2 4 9 11 QP
R1 7 14 1E3
V1 7 17 DC -4.41135E-2
D1 17 14 DX
Q3 14 11 15 QN
Q4 16 10 15 QP
R2 16 4 1E3
D2 16 18 DX
V2 18 4 DC -4.41135E-2
LIN- 15 2 0.1E-9
GB2 7 2 POLY(1) 3 100 (25E-6,1E-6)
CS1 7 2 0.03E-12
CS2 2 4 0.03E-12
*
* GAIN STAGE AND DOMINANT POLE AT 860 kHz
*
EREF 100 0 POLY(2) (7,0) (4,0) (0,0.5,0.5)
G1 100 19 7 14 1E-3
G2 19 100 16 4 1E-3
R3 19 100 3.196E5
C1 19 100 5.79048E-13
V3 7 20 DC 2.8108
D3 19 20 DX
D4 21 19 DX
V4 21 4 DC 2.8108
*
* COMMON-MODE REJECTION NETWORK WITH ZERO AT 34.87 MHz
*
ECM 100 22 3 100 31.668
RCM1 22 23 1E4
CCM 22 23 4.56424E-13
RCM2 23 100 1
*
* POLE AT 800 MHz
*
G4 100 24 19 100 1E-6
R5 24 100 1E6
C3 24 100 1.9894368E-16
*
* POLE AT 4 GHz
*
G5 100 25 24 100 1E-6
R6 25 100 1E6
C4 25 100 3.9788736E-17
*
* OUTPUT STAGE
*
VW 25 30 DC 0
*
FSY 7 4 POLY(2) VSY1 VSY2 (4.7326E-3,1,1)
GSY 100 35 33 30 4.6728972E-2
DSY1 35 36 DX
VSY1 36 100 DC 0
DSY2 37 35 DX
VSY2 100 37 DC 0
DSC1 30 31 DX
VSC1 31 33 DC 0.3615
DSC2 32 30 DX
VSC2 33 32 DC 0.3615
GO1 33 7 7 30 4.6728972E-2
RO1 7 33 21.4
GO2 4 33 30 4 4.6728972E-2
RO2 33 4 21.4
LO 33 6 7E-9
*
.MODEL QN NPN(BF=100 IS=1E-15)
.MODEL QP PNP(BF=100 IS=1E-15)
.MODEL DX D(IS=1E-15)
*
.ENDS AD8001AR
*AD8002A SPICE Macro Model          11/95, Rev. A
*                                         RFD/ADS
*  
* Copyright 1995 by Analog Devices, Inc.
*
* This version of the AD8002 model simulates the typical 
* parameters of the 'A' grade part.  
*
* This model was developed using the +/-5V specifications.
*
* Refer to the "README.DOC" file for License Statement.  Use of this model
* indicates your acceptance with the terms and provisions in the License  
* Statement.
*
* Node assignments
*               Non-inverting input
*               | Inverting input
*               | | Positive supply
*               | | | Negative supply
*               | | | | Output
*               | | | | |
.SUBCKT AD8002A 3 2 7 4 6 
*
****** INPUT STAGE ******
*
Q1 7 9 10 QN
Q2 4 9 11 QP
Q3 14 11 15 QN
Q4 16 10 15 QP
I1 10 4 DC 2.568e-4 
I2 7 11 DC 2.568e-4 
D1 17 14 DX 
D2 16 18 DX 
V2 18 4 DC -4.41135e-2 
V1 7 17 DC -4.41135e-2 
R1 14 7 1E3 
R2 4 16 1E3 
CS1 7 2 .235e-12 
CS2 2 4 .235e-12 
CIN 3 4 1.5E-12 
LIN- 15 2 .9e-9 
GB1 7 3 POLY(1) 3 100 (3e-6,0.2e-6)
GB2 7 2 POLY(1) 3 100 (5e-6,0.3e-6)
EOS 3 9 POLY(1) 100 23 (2E-3,1)
*
****** GAIN STAGE  ********
*
V3 7 20 DC 2.4 
V4 21 4 DC 2.4 
R3 100 19 9e5 
C1 19 100 6.1e-13 
D3 19 20 DX 
D4 21 19 DX 
G1 100 19 POLY(1) 7 14 (0.0,1E-3)
G2 19 100 POLY(1) 16 4 (0.0,1E-3)
EREF 100 0 POLY(2) (7,0) (4,0) (0,0.5,0.5)
*
****** CMRR STAGE ******
*
CCM 22 23 4.56424e-13 
RCM2 100 23 1 
RCM1 23 22 1e4 
ECM 22 100 POLY(1) 100 3 (0.0,31.668)
*
****** POLE STAGE AT   ******
*
C3 100 24 2.273642e-16 
R5 24 100 1e6 
G4 100 24 POLY(1) 19 100 (0.0,1E-6)
*
****** POLE STAGE AT   ******
*
C4 25 100 3.978877e-17 
R6 25 100 1e6 
G5 100 25 POLY(1) 24 100 (0.0,1E-6)
* 
****** OUTPUT STAGE ****** 
* 
RO1 33 7 21.4 
RO2 4 33 21.4 
VW 25 30 DC 0 
VSC1 31 33 DC .58 
VSC2 33 32 DC .58 
LO 33 6 2e-9 
DSC2 32 30 DX 
DSC1 30 31 DX 
GO1 33 7 POLY(1) 7 30 (0.0,4.6728972e-2)
GO2 4 33 POLY(1) 30 4 (0.0,4.6728972e-2)
*
VSY1 36 100 DC 0 
VSY2 100 37 DC 0 
DSY1 35 36 DX 
DSY2 37 35 DX 
FSY 7 4 POLY(2) VSY1 VSY2 (4.7326E-3,1,1)
GSY 100 35 33 30 4.6728972E-2
*
.MODEL QN NPN(BF=100 IS=1E-15)
.MODEL QP PNP(BF=100 IS=1E-15)
.MODEL DX D(IS=1E-15)
.ENDS AD8002A
*AD8002AN SPICE Macro Model        11/95, Rev. A
*                                        RFD/ADS
*  
* This version of the AD8002 model simulates the worst case 
* parameters of the 'A' grade in the 'N ' package (PDIP).  The Worst case
* parameters used correspond to those in the data sheet. 
* This model was developed using the +/-5V specifications.
*
* Copyright 1995 by Analog Devices, Inc.
*
* Refer to the "README.DOC" file for License Statement.  Use of this model
* indicates your acceptance with the terms and provisions in the License  
* Statement.
*
* Node assignments
*                Non-inverting input
*                | Inverting input
*                | | Positive supply
*                | | | Negative supply
*                | | | | Output
*                | | | | |
.SUBCKT AD8002AN 3 2 7 4 6 
*
****** INPUT STAGE ******
*
Q1 7 9 10 QN
Q2 4 9 11 QP
Q3 14 11 15 QN
Q4 16 10 15 QP
I1 10 4 DC 2.568e-4 
I2 7 11 DC 2.568e-4 
D1 17 14 DX 
D2 16 18 DX 
V2 18 4 DC -4.41135e-2 
V1 7 17 DC -4.41135e-2 
R1 14 7 1E3 
R2 4 16 1E3 
CS1 7 2 .25e-12 
CS2 2 4 .25e-12 
CIN 3 4 1.5E-12 
LIN- 15 2 .9e-9 
GB1 7 3 POLY(1) 3 100 (6e-6,0.9e-6)
GB2 7 2 POLY(1) 3 100 (25e-6,1e-6)
EOS 3 9 POLY(1) 100 23 (6E-3,1)
*
****** GAINST  ********
*
V3 7 20 DC 2.8108 
V4 21 4 DC 2.8108 
R3 100 19 3.1e5 
C1  19 100 6.05E-13
D3 19 20 DX 
D4 21 19 DX 
G1 100 19 POLY(1) 7 14 (0.0,1E-3)
G2 19 100 POLY(1) 16 4 (0.0,1E-3)
EREF 100 0 POLY(2) (7,0) (4,0) (0,0.5,0.5)
*
******  CMRR  ******
*
CCM 22 23 4.56424e-13 
RCM2 100 23 1 
RCM1 23 22 1e4 
ECM 22 100 POLY(1) 100 3 (0.0,31.668)
*
****** POLE 1  ******
*
C3 100 24 2.273642e-16 
R5 24 100 1e6 
G4 100 24 POLY(1) 19 100 (0.0,1E-6)
*
****** POLE 2  ******
*
C4 25 100 3.978877e-17 
R6 25 100 1e6 
G5 100 25 POLY(1) 24 100 (0.0,1E-6)
*  
******  OUTPUT  ****** 
* 
RO1 33 7 21.4 
RO2 4 33 21.4 
VW 25 30 DC 0 
VSC1 31 33 DC .325 
VSC2 33 32 DC .325 
LO 33 6 2e-9 
DSC2 32 30 DX 
DSC1 30 31 DX 
GO1 33 7 POLY(1) 7 30 (0.0,4.6728972e-2)
GO2 4 33 POLY(1) 30 4 (0.0,4.6728972e-2)
*
VSY1 36 100 DC 0 
VSY2 100 37 DC 0 
DSY1 35 36 DX 
DSY2 37 35 DX 
FSY 7 4 POLY(2) VSY1 VSY2 (4.7326E-3,1,1)
GSY 100 35 33 30 4.6728972E-2
*
.MODEL QN NPN(BF=100 IS=1E-15)
.MODEL QP PNP(BF=100 IS=1E-15)
.MODEL DX D(IS=1E-15)
.ENDS AD8002AN
*AD8002AR SPICE Macro Model        11/95, Rev. A
*                                        RFD/ADS
*  
* This version of the AD8002 model simulates the worst case 
* parameters of the 'A' grade in the 'R ' package (SOIC).  The Worst case
* parameters used correspond to those in the data sheet. 
* This model was developed using the +/-5V specifications.
*
* Copyright 1995 by Analog Devices, Inc.
*
* Refer to the "README.DOC" file for License Statement.  Use of this model
* indicates your acceptance with the terms and provisions in the License  
* Statement.
*
* Node assignments
*                Non-inverting input
*                | Inverting input
*                | | Positive supply
*                | | | Negative supply
*                | | | | Output
*                | | | | |
.SUBCKT AD8002AR 3 2 7 4 6
*
****** INPUT STAGE ********
*
Q1 7 9 10 QN
Q2 4 9 11 QP
Q3 14 11 15 QN
Q4 16 10 15 QP
I1 10 4 DC 2.568e-4 
I2 7 11 DC 2.568e-4 
D1 17 14 DX 
D2 16 18 DX 
V2 18 4 DC -4.41135e-2 
V1 7 17 DC -4.41135e-2 
R1 14 7 1E3 
R2 4 16 1E3 
CS1 7 2 .25e-12 
CS2 2 4 .25e-12 
CIN 3 4 1.5E-12 
LIN- 15 2 .9e-9 
GB1 7 3 POLY(1) 3 100 (6e-6,0.9e-6)
GB2 7 2 POLY(1) 3 100 (25e-6,1e-6)
EOS 3 9 POLY(1) 100 23 (6E-3,1)
*
****** gainst *******
*
V3 7 20 DC 2.8108 
V4 21 4 DC 2.8108 
R3 100 19 3.1e5 
C1 19 100 6.4987781e-13 
D3 19 20 DX 
D4 21 19 DX 
G1 100 19 POLY(1) 7 14 (0,1E-3)
G2 19 100 POLY(1) 16 4 (0,1E-3)
EREF 100 0 POLY(2) (7,0) (4,0) (0,0.5,0.5)
*
****** CMRR *********
*
CCM 22 23 4.56424e-13 
RCM2 100 23 1 
RCM1 23 22 1e4 
ECM 22 100 100 3 31.668
*
******* POLE1 ***********
*
C3 100 24 2.273644e-16 
R5 24 100 1e6 
G4 100 24 19 100 1E-6
*
******** POLE2 ***********
*
C4 25 100 3.978877e-17 
R6 25 100 1e6 
G5 100 25 24 100 1E-6
*
****** OUTPUT ********
*
RO1 33 7 21.4 
RO2 4 33 21.4 
VW 25 30 DC 0 
VSC1 31 33 DC .325 
VSC2 33 32 DC .325 
LO 33 6 2e-9 
DSC2 32 30 DX 
DSC1 30 31 DX 
GO1 33 7 POLY(1) 7 30 (0.0, 4.6728972e-2)
GO2 4 33 POLY(1) 30 4 (0.0, 4.6728972e-2)
*
VSY1 36 100 DC 0 
VSY2 100 37 DC 0 
DSY1 35 36 DX 
DSY2 37 35 DX 
FSY 7 4 POLY(2) VSY1 VSY2 (4.7326E-3,1,1)
GSY 100 35 33 30 4.6728972E-2
*
.MODEL QN NPN(BF=100 IS=1E-15)
.MODEL QP PNP(BF=100 IS=1E-15)
.MODEL DX D(IS=1E-15)
.ENDS AD8002AR
* AD645 SPICE Macro-model                   4/92, Rev. B
*                                           JCB / PMI
*
* Revision History:
*     Rev. B:  Converted model to include noise analysis. 
*
* Copyright 1990 by Analog Devices, Inc.
*
* Refer to "README.DOC" file for License Statement.  Use of this model
* indicates your acceptance with the terms and provisions in the License Statement.
*
* Node assignments
*                non-inverting input
*                | inverting input
*                | | positive supply
*                | | |  negative supply
*                | | |  |  output
*                | | |  |  |
.SUBCKT AD645    1 2 99 50 30
*
* INPUT STAGE & POLE AT 40 MHZ
*
R3   5  50    2.097
R4   6  50    2.097
CIN  1   2    1E-12
C2   5   6    9.48E-10
I1   99  4    100E-3
IOS  1   2    0.05E-12
EOS  65  1    POLY(1)  17 24  100E-6  1
J1   5   2    4   JX
J2   6   7    4   JX
EN   7  65    43  0  1
GN1  0   1    47  0  1E-6
GN2  0   2    61  0  1E-6
GB1  2  50    POLY(3) 4,2 5,2 50,2 0 1E-12 1E-12 1E-12
GB2  7  50    POLY(3) 4,7 6,7 50,7 0 1E-12 1E-12 1E-12
*
EREF 98  0    24  0   1
*
* VOLTAGE NOISE GENERATOR
*
VN1  41  0    DC 2
RS1  41 42    8E3
RS2  42 43    1.2E9
CS1  42 43    398E-11
RS3  43 44    1.2E9
CS2  43 44    398E-11
RS4  44 45    8E3
VN2  0  45    DC 2
*
* CURRENT NOISE GENERATOR
*
VN3  46  0    DC 2
RN5  46 47    41.5
RN6  47 48    41.5
VN4  0  48    DC 2
*
* CURRENT NOISE GENERATOR
*
VN5  60  0    DC 2
RN7  60 61    41.5
RN8  61 62    41.5
VN6  0  62    DC 2
*  
* SECOND STAGE & POLE AT 0.48 HZ
*
R5   9  98    6.632E6
C3   9  98    5.00E-8
G1   98  9    5  6  4.769E-1
V2   99  8    3.6
V3   10 50    3.6
D1   9   8    DX
D2   10  9    DX
*
* NEGATIVE ZERO AT 15 MHZ
*
R6   11 12     1E6
C4   11 12     -10.6E-15
R7   12 98     1
E2   11 98     9  24  1E6
*
* POLE AT 40 MHZ
*
R8   13 98     1E3
C5   13 98     3.98E-12
G2   98 13     12 24  1E-3
*
* POLE AT 40 MHZ
*
R9   14 98     1E3
C6   14 98     3.98E-12
G3   98 14     13 24  1E-3
*
* POLE AT 40 MHZ
*
R10  15 98     1E3
C7   15 98     3.98E-12
G4   98 15     14 24  1E-3
*
* COMMON-MODE GAIN NETWORK WITH ZERO AT 60 HZ
*
R11  16 17     1E6
C8   16 17     2.65E-9
R12  17 98     1
E3   16 98     POLY(2) 1  98  2  98  0  1.58  1.58
*
* POLE AT 40 MHZ
*
R13  18 98     1E3
C9   18 98     3.98E-12
G5   98 18     15 24  1E-3
*
* OUTPUT STAGE
*
R14  24 99     2000E3
R15  24 50     2000E3
ISY  99 50     -97E-3
R16  29 99     360
R17  29 50     360
L1   29 30     1E-8
G6   27 50     18 29  2.78E-3
G7   28 50     29 18  2.78E-3
G8   29 99     99 18  2.78E-3
G9   50 29     18 50  2.78E-3
V4   25 29     2.0
V5   29 26     2.0
D3   18 25     DX
D4   26 18     DX
D5   99 27     DX
D6   99 28     DX
D7   50 27     DY
D8   50 28     DY
F1   29  0     V4  1
F2   0  29     V5  1
*
* MODELS USED
*
.MODEL JX PJF(BETA=1.137  VTO=-2.000  IS=0.35E-12 RD=0.1
+ RS=0.1 CGD=1E-15 CGS=1E-15)
.MODEL DX   D(IS=1E-15 RS=10 CJO=1E-15)
.MODEL DY   D(IS=1E-15 BV=50 RS=10 CJO=1E-15)
.MODEL DEN  D(IS=1E-12 RS=7409.6 KF=2.051E-15 AF=1)
.MODEL DIN  D(IS=1E-12 RS=41.5 KF=0 AF=1)
.ENDS AD645
* AD645A SPICE Macro-model                  4/92, Rev. B
*                                           JCB / PMI
*
* Revision History:
*     Rev. B:  Converted model to include noise analysis. 
*
* This version of the AD645 model simulates the worst case 
* parameters of the 'A' grade.  The worst case parameters
* used correspond to those in the data sheet.
*
* Copyright 1990 by Analog Devices, Inc.
*
* Refer to "README.DOC" file for License Statement.  Use of this model
* indicates your acceptance with the terms and provisions in the License Statement.
*
* Node assignments
*                non-inverting input
*                | inverting input
*                | | positive supply
*                | | |  negative supply
*                | | |  |  output
*                | | |  |  |
.SUBCKT AD645A   1 2 99 50 30
*
* INPUT STAGE & POLE AT 40 MHZ
*
R3   5  50    1.049
R4   6  50    1.049
CIN  1   2    1E-12
C2   5   6    1.90E-9
I1   99  4    100E-3
IOS  1   2    0.5E-12
EOS  65  1    POLY(1)  17 24  500E-6  1
J1   5   2    4   JX
J2   6   7    4   JX
EN   7  65    43  0  1
GN1  0   1    47  0  1E-6
GN2  0   2    61  0  1E-6
GB1  2  50    POLY(3) 4,2 5,2 50,2 0 1E-12 1E-12 1E-12
GB2  7  50    POLY(3) 4,7 6,7 50,7 0 1E-12 1E-12 1E-12
*
EREF 98  0    24  0   1
*
* VOLTAGE NOISE GENERATOR
*
VN1  41  0    DC 2
RS1  41 42    11.8E3
RS2  42 43    1.2E9
CS1  42 43    79.8E-11
RS3  43 44    1.2E9
CS2  43 44    79.8E-11
RS4  44 45    11.8E3
VN2  0  45    DC 2
*
* CURRENT NOISE GENERATOR
*
VN3  46  0    DC 2
RN5  46 47    144
RN6  47 48    144
VN4  0  48    DC 2
*
* CURRENT NOISE GENERATOR
*
VN5  60  0    DC 2
RN7  60 61    144
RN8  61 62    144
VN6  0  62    DC 2
*  
* SECOND STAGE & POLE AT 3 HZ
*
R5   9  98    5.26E5
C3   9  98    1.00E-7
G1   98  9    5  6  9.53E-1
V2   99  8    4.7
V3   10 50    4.7
D1   9   8    DX
D2   10  9    DX
*
* NEGATIVE ZERO AT 15 MHZ
*
R6   11 12     1E6
C4   11 12     -10.6E-15
R7   12 98     1
E2   11 98     9  24  1E6
*
* POLE AT 40 MHZ
*
R8   13 98     1E3
C5   13 98     3.98E-12
G2   98 13     12 24  1E-3
*
* POLE AT 40 MHZ
*
R9   14 98     1E3
C6   14 98     3.98E-12
G3   98 14     13 24  1E-3
*
* POLE AT 40 MHZ
*
R10  15 98     1E3
C7   15 98     3.98E-12
G4   98 15     14 24  1E-3
*
* COMMON-MODE GAIN NETWORK WITH ZERO AT 600 HZ
*
R11  16 17     1E6
C8   16 17     2.65E-10
R12  17 98     1
E3   16 98     POLY(2) 1  98  2  98  0  15.8  15.8
*
* POLE AT 40 MHZ
*
R13  18 98     1E3
C9   18 98     3.98E-12
G5   98 18     15 24  1E-3
*
* OUTPUT STAGE
*
R14  24 99     2000E3
R15  24 50     2000E3
ISY  99 50     -96.5E-3
R16  29 99     360
R17  29 50     360
L1   29 30     1E-8
G6   27 50     18 29  2.78E-3
G7   28 50     29 18  2.78E-3
G8   29 99     99 18  2.78E-3
G9   50 29     18 50  2.78E-3
V4   25 29     2.0
V5   29 26     2.0
D3   18 25     DX
D4   26 18     DX
D5   99 27     DX
D6   99 28     DX
D7   50 27     DY
D8   50 28     DY
F1   29  0     V4  1
F2   0  29     V5  1
*
* MODELS USED
*
.MODEL JX PJF(BETA=4.54  VTO=-2.000  IS=2.5E-12 RD=0.1
+ RS=0.1 CGD=1E-15 CGS=1E-15)
.MODEL DX   D(IS=1E-15 RS=10 CJO=1E-15)
.MODEL DY   D(IS=1E-15 BV=50 RS=10 CJO=1E-15)
.MODEL DEN  D(IS=1E-12 RS=7409.6 KF=2.051E-15 AF=1)
.MODEL DIN  D(IS=1E-12 RS=41.5 KF=0 AF=1)
.ENDS AD645A
* AD645B SPICE Macro-model                  4/92, Rev. B
*                                           JCB / PMI
*
* Revision History:
*     Rev. B:  Converted model to include noise analysis. 
*
* This version of the AD645 model simulates the worst case 
* parameters of the 'B' grade.  The worst case parameters
* used correspond to those in the data sheet.
*
* Copyright 1990 by Analog Devices, Inc.
*
* Refer to "README.DOC" file for License Statement.  Use of this model
* indicates your acceptance with the terms and provisions in the License Statement.
*
* Node assignments
*                non-inverting input
*                | inverting input
*                | | positive supply
*                | | |  negative supply
*                | | |  |  output
*                | | |  |  |
.SUBCKT AD645B   1 2 99 50 30
*
* INPUT STAGE & POLE AT 40 MHZ
*
R3   5  50    1.049
R4   6  50    1.049
CIN  1   2    1E-12
C2   5   6    1.90E-9
I1   99  4    100E-3
IOS  1   2    0.25E-12
EOS  65  1    POLY(1)  17 24  250E-6  1
J1   5   2    4   JX
J2   6   7    4   JX
EN   7  65    43  0  1
GN1  0   1    47  0  1E-6
GN2  0   2    61  0  1E-6
GB1  2  50    POLY(3) 4,2 5,2 50,2 0 1E-12 1E-12 1E-12
GB2  7  50    POLY(3) 4,7 6,7 50,7 0 1E-12 1E-12 1E-12
*
EREF 98  0    24  0   1
*
* VOLTAGE NOISE GENERATOR
*
VN1  41  0    DC 2
RS1  41 42    11.8E3
RS2  42 43    1.2E9
CS1  42 43    100E-11
RS3  43 44    1.2E9
CS2  43 44    100E-11
RS4  44 45    11.8E3
VN2  0  45    DC 2
*
* CURRENT NOISE GENERATOR
*
VN3  46  0    DC 2
RN5  46 47    75.4
RN6  47 48    75.4
VN4  0  48    DC 2
*
* CURRENT NOISE GENERATOR
*
VN5  60  0    DC 2
RN7  60 61    75.4
RN8  61 62    75.4
VN6  0  62    DC 2
*  
* SECOND STAGE & POLE AT 1.5 HZ
*
R5   9  98    1.05E6
C3   9  98    1.00E-7
G1   98  9    5  6  9.53E-1
V2   99  8    4.7
V3   10 50    4.7
D1   9   8    DX
D2   10  9    DX
*
* NEGATIVE ZERO AT 15 MHZ
*
R6   11 12     1E6
C4   11 12     -10.6E-15
R7   12 98     1
E2   11 98     9  24  1E6
*
* POLE AT 40 MHZ
*
R8   13 98     1E3
C5   13 98     3.98E-12
G2   98 13     12 24  1E-3
*
* POLE AT 40 MHZ
*
R9   14 98     1E3
C6   14 98     3.98E-12
G3   98 14     13 24  1E-3
*
* POLE AT 40 MHZ
*
R10  15 98     1E3
C7   15 98     3.98E-12
G4   98 15     14 24  1E-3
*
* COMMON-MODE GAIN NETWORK WITH ZERO AT 380 HZ
*
R11  16 17     1E6
C8   16 17     4.198E-10
R12  17 98     1
E3   16 98     POLY(2) 1  98  2  98  0  10  10
*
* POLE AT 40 MHZ
*
R13  18 98     1E3
C9   18 98     3.98E-12
G5   98 18     15 24  1E-3
*
* OUTPUT STAGE
*
R14  24 99     2000E3
R15  24 50     2000E3
ISY  99 50     -96.5E-3
R16  29 99     360
R17  29 50     360
L1   29 30     1E-8
G6   27 50     18 29  2.78E-3
G7   28 50     29 18  2.78E-3
G8   29 99     99 18  2.78E-3
G9   50 29     18 50  2.78E-3
V4   25 29     2.0
V5   29 26     2.0
D3   18 25     DX
D4   26 18     DX
D5   99 27     DX
D6   99 28     DX
D7   50 27     DY
D8   50 28     DY
F1   29  0     V4  1
F2   0  29     V5  1
*
* MODELS USED
*
.MODEL JX PJF(BETA=4.54  VTO=-2.000  IS=1.5E-12 RD=0.1
+ RS=0.1 CGD=1E-15 CGS=1E-15)
.MODEL DX   D(IS=1E-15 RS=10 CJO=1E-15)
.MODEL DY   D(IS=1E-15 BV=50 RS=10 CJO=1E-15)
.MODEL DEN  D(IS=1E-12 RS=7409.6 KF=2.051E-15 AF=1)
.MODEL DIN  D(IS=1E-12 RS=41.5 KF=0 AF=1)
.ENDS AD645B
* AD645J SPICE Macro-model                  4/92, Rev. B
*                                           JCB / PMI
*
* Revision History:
*     Rev. B:  Converted model to include noise analysis. 
*
* This version of the AD645 model simulates the worst case 
* parameters of the 'J' grade.  The worst case parameters
* used correspond to those in the data sheet.
*
* Copyright 1990 by Analog Devices, Inc.
*
* Refer to "README.DOC" file for License Statement.  Use of this model
* indicates your acceptance with the terms and provisions in the License Statement.
*
* Node assignments
*                non-inverting input
*                | inverting input
*                | | positive supply
*                | | |  negative supply
*                | | |  |  output
*                | | |  |  |
.SUBCKT AD645J   1 2 99 50 30
*
* INPUT STAGE & POLE AT 40 MHZ
*
R3   5  50    1.049
R4   6  50    1.049
CIN  1   2    1E-12
C2   5   6    1.90E-9
I1   99  4    100E-3
IOS  1   2    0.5E-12
EOS  65  1    POLY(1)  17 24  500E-6  1
J1   5   2    4   JX
J2   6   7    4   JX
EN   7  65    43  0  1
GN1  0   1    47  0  1E-6
GN2  0   2    61  0  1E-6
GB1  2  50    POLY(3) 4,2 5,2 50,2 0 1E-12 1E-12 1E-12
GB2  7  50    POLY(3) 4,7 6,7 50,7 0 1E-12 1E-12 1E-12
*
EREF 98  0    24  0   1
*
* VOLTAGE NOISE GENERATOR
*
VN1  41  0    DC 2
RS1  41 42    11.8E3
RS2  42 43    1.2E9
CS1  42 43    79.8E-11
RS3  43 44    1.2E9
CS2  43 44    79.8E-11
RS4  44 45    11.8E3
VN2  0  45    DC 2
*
* CURRENT NOISE GENERATOR
*
VN3  46  0    DC 2
RN5  46 47    144
RN6  47 48    144
VN4  0  48    DC 2
*
* CURRENT NOISE GENERATOR
*
VN5  60  0    DC 2
RN7  60 61    144
RN8  61 62    144
VN6  0  62    DC 2
*  
* SECOND STAGE & POLE AT 3 HZ
*
R5   9  98    5.26E5
C3   9  98    1.00E-7
G1   98  9    5  6  9.53E-1
V2   99  8    4.7
V3   10 50    4.7
D1   9   8    DX
D2   10  9    DX
*
* NEGATIVE ZERO AT 15 MHZ
*
R6   11 12     1E6
C4   11 12     -10.6E-15
R7   12 98     1
E2   11 98     9  24  1E6
*
* POLE AT 40 MHZ
*
R8   13 98     1E3
C5   13 98     3.98E-12
G2   98 13     12 24  1E-3
*
* POLE AT 40 MHZ
*
R9   14 98     1E3
C6   14 98     3.98E-12
G3   98 14     13 24  1E-3
*
* POLE AT 40 MHZ
*
R10  15 98     1E3
C7   15 98     3.98E-12
G4   98 15     14 24  1E-3
*
* COMMON-MODE GAIN NETWORK WITH ZERO AT 600 HZ
*
R11  16 17     1E6
C8   16 17     2.65E-10
R12  17 98     1
E3   16 98     POLY(2) 1  98  2  98  0  15.8  15.8
*
* POLE AT 40 MHZ
*
R13  18 98     1E3
C9   18 98     3.98E-12
G5   98 18     15 24  1E-3
*
* OUTPUT STAGE
*
R14  24 99     2000E3
R15  24 50     2000E3
ISY  99 50     -96.5E-3
R16  29 99     360
R17  29 50     360
L1   29 30     1E-8
G6   27 50     18 29  2.78E-3
G7   28 50     29 18  2.78E-3
G8   29 99     99 18  2.78E-3
G9   50 29     18 50  2.78E-3
V4   25 29     2.0
V5   29 26     2.0
D3   18 25     DX
D4   26 18     DX
D5   99 27     DX
D6   99 28     DX
D7   50 27     DY
D8   50 28     DY
F1   29  0     V4  1
F2   0  29     V5  1
*
* MODELS USED
*
.MODEL JX PJF(BETA=4.54  VTO=-2.000  IS=1.5E-12 RD=0.1
+ RS=0.1 CGD=1E-15 CGS=1E-15)
.MODEL DX   D(IS=1E-15 RS=10 CJO=1E-15)
.MODEL DY   D(IS=1E-15 BV=50 RS=10 CJO=1E-15)
.MODEL DEN  D(IS=1E-12 RS=7409.6 KF=2.051E-15 AF=1)
.MODEL DIN  D(IS=1E-12 RS=41.5 KF=0 AF=1)
.ENDS AD645J
* AD645K SPICE Macro-model                  4/92, Rev. B
*                                           JCB / PMI
*
* Revision History:
*     Rev. B:  Converted model to include noise analysis. 
*
* This version of the AD645 model simulates the worst case 
* parameters of the 'K' grade.  The worst case parameters
* used correspond to those in the data sheet.
*
* Copyright 1990 by Analog Devices, Inc.
*
* Refer to "README.DOC" file for License Statement.  Use of this model
* indicates your acceptance with the terms and provisions in the License Statement.
*
* Node assignments
*                non-inverting input
*                | inverting input
*                | | positive supply
*                | | |  negative supply
*                | | |  |  output
*                | | |  |  |
.SUBCKT AD645K   1 2 99 50 30
*
* INPUT STAGE & POLE AT 40 MHZ
*
R3   5  50    1.049
R4   6  50    1.049
CIN  1   2    1E-12
C2   5   6    1.90E-9
I1   99  4    100E-3
IOS  1   2    0.25E-12
EOS  65  1    POLY(1)  17 24  250E-6  1
J1   5   2    4   JX
J2   6   7    4   JX
EN   7  65    43  0  1
GN1  0   1    47  0  1E-6
GN2  0   2    61  0  1E-6
GB1  2  50    POLY(3) 4,2 5,2 50,2 0 1E-12 1E-12 1E-12
GB2  7  50    POLY(3) 4,7 6,7 50,7 0 1E-12 1E-12 1E-12
*
EREF 98  0    24  0   1
*
* VOLTAGE NOISE GENERATOR
*
VN1  41  0    DC 2
RS1  41 42    11.8E3
RS2  42 43    1.2E9
CS1  42 43    100E-11
RS3  43 44    1.2E9
CS2  43 44    100E-11
RS4  44 45    11.8E3
VN2  0  45    DC 2
*
* CURRENT NOISE GENERATOR
*
VN3  46  0    DC 2
RN5  46 47    75.4
RN6  47 48    75.4
VN4  0  48    DC 2
*
* CURRENT NOISE GENERATOR
*
VN5  60  0    DC 2
RN7  60 61    75.4
RN8  61 62    75.4
VN6  0  62    DC 2
*  
* SECOND STAGE & POLE AT 1.5 HZ
*
R5   9  98    1.05E6
C3   9  98    1.00E-7
G1   98  9    5  6  9.53E-1
V2   99  8    4.7
V3   10 50    4.7
D1   9   8    DX
D2   10  9    DX
*
* NEGATIVE ZERO AT 15 MHZ
*
R6   11 12     1E6
C4   11 12     -10.6E-15
R7   12 98     1
E2   11 98     9  24  1E6
*
* POLE AT 40 MHZ
*
R8   13 98     1E3
C5   13 98     3.98E-12
G2   98 13     12 24  1E-3
*
* POLE AT 40 MHZ
*
R9   14 98     1E3
C6   14 98     3.98E-12
G3   98 14     13 24  1E-3
*
* POLE AT 40 MHZ
*
R10  15 98     1E3
C7   15 98     3.98E-12
G4   98 15     14 24  1E-3
*
* COMMON-MODE GAIN NETWORK WITH ZERO AT 380 HZ
*
R11  16 17     1E6
C8   16 17     4.198E-10
R12  17 98     1
E3   16 98     POLY(2) 1  98  2  98  0  10  10
*
* POLE AT 40 MHZ
*
R13  18 98     1E3
C9   18 98     3.98E-12
G5   98 18     15 24  1E-3
*
* OUTPUT STAGE
*
R14  24 99     2000E3
R15  24 50     2000E3
ISY  99 50     -96.5E-3
R16  29 99     360
R17  29 50     360
L1   29 30     1E-8
G6   27 50     18 29  2.78E-3
G7   28 50     29 18  2.78E-3
G8   29 99     99 18  2.78E-3
G9   50 29     18 50  2.78E-3
V4   25 29     2.0
V5   29 26     2.0
D3   18 25     DX
D4   26 18     DX
D5   99 27     DX
D6   99 28     DX
D7   50 27     DY
D8   50 28     DY
F1   29  0     V4  1
F2   0  29     V5  1
*
* MODELS USED
*
.MODEL JX PJF(BETA=4.54  VTO=-2.000  IS=0.75E-12 RD=0.1
+ RS=0.1 CGD=1E-15 CGS=1E-15)
.MODEL DX   D(IS=1E-15 RS=10 CJO=1E-15)
.MODEL DY   D(IS=1E-15 BV=50 RS=10 CJO=1E-15)
.MODEL DEN  D(IS=1E-12 RS=7409.6 KF=2.051E-15 AF=1)
.MODEL DIN  D(IS=1E-12 RS=41.5 KF=0 AF=1)
.ENDS AD645K
* AD645S SPICE Macro-model                  4/92, Rev. B
*                                           JCB / PMI
*
* Revision History:
*     Rev. B:  Converted model to include noise analysis. 
*
* This version of the AD645 model simulates the worst case 
* parameters of the 'S' grade.  The worst case parameters
* used correspond to those in the data sheet.
*
* Copyright 1990 by Analog Devices, Inc.
*
* Refer to "README.DOC" file for License Statement.  Use of this model
* indicates your acceptance with the terms and provisions in the License Statement.
*
* Node assignments
*                non-inverting input
*                | inverting input
*                | | positive supply
*                | | |  negative supply
*                | | |  |  output
*                | | |  |  |
.SUBCKT AD645S   1 2 99 50 30
*
* INPUT STAGE & POLE AT 40 MHZ
*
R3   5  50    1.049
R4   6  50    1.049
CIN  1   2    1E-12
C2   5   6    1.90E-9
I1   99  4    100E-3
IOS  1   2    0.5E-12
EOS  65  1    POLY(1)  17 24  500E-6  1
J1   5   2    4   JX
J2   6   7    4   JX
EN   7  65    43  0  1