**************************************************************************
* INA101 = A1_101 + A2_101 + A3_101 OP AMPS + PRECISION RESISTOR NETWORK
* CREATED ON 10/30/90 AT 15:01
* REV.A
*  ------------------------------------------------------------------------ 
* |  NOTICE: THE INFORMATION PROVIDED HEREIN IS BELIEVED TO BE RELIABLE;   |
* |  HOWEVER; BURR-BROWN ASSUMES NO RESPONSIBILITY FOR INACCURACIES OR     |
* |  OMISSIONS.  BURR-BROWN ASSUMES NO RESPONSIBILITY FOR THE USE OF THIS  |
* |  INFORMATION, AND ALL USE OF SUCH INFORMATION SHALL BE ENTIRELY AT     |
* |  THE USER'S OWN RISK.  NO PATENT RIGHTS OR LICENSES TO ANY OF THE      |
* |  CIRCUITS DESCRIBED HEREIN ARE IMPLIED OR GRANTED TO ANY THIRD PARTY.  |
* |  BURR-BROWN DOES NOT AUTHORIZE OR WARRANT ANY BURR-BROWN PRODUCT FOR   |
* |  USE IN LIFE-SUPPORT DEVICES AND/OR SYSTEMS.                           |
*  ------------------------------------------------------------------------ 
*

***** INA101 SUB-CIRCUIT
* CONNECTIONS:          NON-INVERTING INPUT
*                       |   INVERTING INPUT
*                       |   |   POSITIVE POWER SUPPLY
*                       |   |   |   NEGATIVE POWER SUPPLY
*                       |   |   |   |   OUTPUT
*                       |   |   |   |   |   REFERENCE
*                       |   |   |   |   |   |   GAIN SET 1
*                       |   |   |   |   |   |   |   GAIN SET 2
*                       |   |   |   |   |   |   |   |
.SUBCKT INA101          1   2   3   4   5   8   9  10
*
***** A1_101 SUB-CIRCUIT
* CONNECTIONS:          NON-INVERTING INPUT
*                       |   INVERTING INPUT
*                       |   |   POSITIVE POWER SUPPLY
*                       |   |   |   NEGATIVE POWER SUPPLY
*                       |   |   |   |   OUTPUT
*                       |   |   |   |   |
X1                      2   9   3   4  11   A1_101
*
***** A2_101 SUB-CIRCUIT
* CONNECTIONS:          NON-INVERTING INPUT
*                       |   INVERTING INPUT
*                       |   |   POSITIVE POWER SUPPLY
*                       |   |   |   NEGATIVE POWER SUPPLY
*                       |   |   |   |   OUTPUT
*                       |   |   |   |   |
X2                      1  10   3   4  12   A2_101
*
***** A3_101 SUB-CIRCUIT
* CONNECTIONS:          NON-INVERTING INPUT
*                       |   INVERTING INPUT
*                       |   |   POSITIVE POWER SUPPLY
*                       |   |   |   NEGATIVE POWER SUPPLY
*                       |   |   |   |   OUTPUT
*                       |   |   |   |   |
X3                     14  13   3   4   5   A3_101
*
R1    11  13  10.0000K
R2    13   5   9.9994K
C2    13   5   0.8000PF
R3    12  14  10.0000K
R4    14   8  10.0000K
*
RFB1   9  11  20.0000K
CC1    9  11  15.0000PF
RFB2  10  12  20.0000K
CC2   10  12  15.0000PF
*
.ENDS
* A1_101 OPERATIONAL AMPLIFIER "MACROMODEL" SUBCIRCUIT
* CREATED USING PARTS RELEASE 4.03 ON 11/06/90 AT 12:56
*
* CONNECTIONS:   NON-INVERTING INPUT
*                | INVERTING INPUT
*                | | POSITIVE POWER SUPPLY
*                | | | NEGATIVE POWER SUPPLY
*                | | | | OUTPUT
*                | | | | |
.SUBCKT A1_101   1 2 3 4 5
*
C1   11 12 8.660E-12
C2    6  7 30.00E-12
DC    5 53 DX
DE   54  5 DX
DLP  90 91 DX
DLN  92 90 DX
DP    4  3 DX
EGND 99  0 POLY(2) (3,0) (4,0) 0 .5 .5
FB    7 99 POLY(5) VB VC VE VLP VLN 0 70.20E6 -70E6 70E6 70E6 -70E6
GA    6  0 11 12 320.4E-6
GCM   0  6 10 99 2.022E-9
IEE  10  4 DC 30.05E-6
HLIM 90  0 VLIM 1K
Q1   11  2 13 QX
Q2   12  1 14 QX
R2    6  9 100.0E3
RC1   3 11 3.121E3
RC2   3 12 3.121E3
RE1  13 10 1.394E3
RE2  14 10 1.394E3
REE  10 99 6.656E6
RO1   8  5 25
RO2   7 99 25
RP    3  4 10.70E3
VB    9  0 DC 0
VC    3 53 DC 2.500
VE   54  4 DC 2.500
VLIM  7  8 DC 0
VLP  91  0 DC 10
VLN   0 92 DC 10
.MODEL DX D(IS=800.0E-18)
.MODEL QX NPN(IS=800.0E-18 BF=600)
.ENDS
* A2_101 OPERATIONAL AMPLIFIER "MACROMODEL" SUBCIRCUIT
* CREATED USING PARTS RELEASE 4.03 ON 11/06/90 AT 11:30
*
* CONNECTIONS:   NON-INVERTING INPUT
*                | INVERTING INPUT
*                | | POSITIVE POWER SUPPLY
*                | | | NEGATIVE POWER SUPPLY
*                | | | | OUTPUT
*                | | | | |
.SUBCKT A2_101   1 2 3 4 5
*
C1   11 12 8.660E-12
C2    6  7 30.00E-12
DC    5 53 DX
DE   54  5 DX
DLP  90 91 DX
DLN  92 90 DX
DP    4  3 DX
EGND 99  0 POLY(2) (3,0) (4,0) 0 .5 .5
FB    7 99 POLY(5) VB VC VE VLP VLN 0 59.67E6 -60E6 60E6 60E6 -60E6
GA    6  0 11 12 377.0E-6
GCM   0  6 10 99 1.192E-9
IEE  10  4 DC 30.05E-6
HLIM 90  0 VLIM 1K
Q1   11  2 13 QX
Q2   12  1 14 QX
R2    6  9 100.0E3
RC1   3 11 2.653E3
RC2   3 12 2.653E3
RE1  13 10 926.8
RE2  14 10 926.8
REE  10 99 6.656E6
RO1   8  5 25
RO2   7 99 25
RP    3  4 10.70E3
VB    9  0 DC 0
VC    3 53 DC 2.500
VE   54  4 DC 2.500
VLIM  7  8 DC 0
VLP  91  0 DC 10
VLN   0 92 DC 10
.MODEL DX D(IS=800.0E-18)
.MODEL QX NPN(IS=800.0E-18 BF=600)
.ENDS
* A3_101 OPERATIONAL AMPLIFIER "MACROMODEL" SUBCIRCUIT
* CREATED USING PARTS RELEASE 4.03 ON 11/06/90 AT 11:39
*
* CONNECTIONS:   NON-INVERTING INPUT
*                | INVERTING INPUT
*                | | POSITIVE POWER SUPPLY
*                | | | NEGATIVE POWER SUPPLY
*                | | | | OUTPUT
*                | | | | |
.SUBCKT A3_101   1 2 3 4 5
*
C1   11 12 8.660E-12
C2    6  7 10.00E-12
DC    5 53 DX
DE   54  5 DX
DLP  90 91 DX
DLN  92 90 DX
DP    4  3 DX
EGND 99  0 POLY(2) (3,0) (4,0) 0 .5 .5
FB    7 99 POLY(5) VB VC VE VLP VLN 0 358.0E6 -40E6 40E6 40E6 -40E6
GA    6  0 11 12 62.83E-6
GCM   0  6 10 99 198.7E-12
IEE  10  4 DC 5.050E-6
HLIM 90  0 VLIM 1K
Q1   11  2 13 QX
Q2   12  1 14 QX
R2    6  9 100.0E3
RC1   3 11 15.92E3
RC2   3 12 15.92E3
RE1  13 10 5.515E3
RE2  14 10 5.515E3
REE  10 99 39.60E6
RO1   8  5 25
RO2   7 99 25
RP    3  4 10.61E3
VB    9  0 DC 0
VC    3 53 DC 2.500
VE   54  4 DC 2.500
VLIM  7  8 DC 0
VLP  91  0 DC 10
VLN   0 92 DC 10
.MODEL DX D(IS=800.0E-18)
.MODEL QX NPN(IS=800.0E-18 BF=100)
.ENDS
*************************************************************************
*************************************************************************
* INA101E = A1_101E + A2_101E + A3_101E OP AMPS + PRECISION RESISTOR NETWORK
* "E" IS ENHANCED MODEL
* CREATED ON 10/30/90 AT 15:01
* REV.A
*  ------------------------------------------------------------------------ 
* |  NOTICE: THE INFORMATION PROVIDED HEREIN IS BELIEVED TO BE RELIABLE;   |
* |  HOWEVER; BURR-BROWN ASSUMES NO RESPONSIBILITY FOR INACCURACIES OR     |
* |  OMISSIONS.  BURR-BROWN ASSUMES NO RESPONSIBILITY FOR THE USE OF THIS  |
* |  INFORMATION, AND ALL USE OF SUCH INFORMATION SHALL BE ENTIRELY AT     |
* |  THE USER'S OWN RISK.  NO PATENT RIGHTS OR LICENSES TO ANY OF THE      |
* |  CIRCUITS DESCRIBED HEREIN ARE IMPLIED OR GRANTED TO ANY THIRD PARTY.  |
* |  BURR-BROWN DOES NOT AUTHORIZE OR WARRANT ANY BURR-BROWN PRODUCT FOR   |
* |  USE IN LIFE-SUPPORT DEVICES AND/OR SYSTEMS.                           |
*  ------------------------------------------------------------------------ 
*
***** INA101E SUB-CIRCUIT
* CONNECTIONS:          NON-INVERTING INPUT
*                       |   INVERTING INPUT
*                       |   |   POSITIVE POWER SUPPLY
*                       |   |   |   NEGATIVE POWER SUPPLY
*                       |   |   |   |   OUTPUT
*                       |   |   |   |   |   REFERENCE
*                       |   |   |   |   |   |   GAIN SENSE 1
*                       |   |   |   |   |   |   |   GAIN SENSE 2
*                       |   |   |   |   |   |   |   |
.SUBCKT INA101E         1   2   3   4   5   8   9  10
*
***** A1_101E SUB-CIRCUIT
* CONNECTIONS:          NON-INVERTING INPUT
*                       |   INVERTING INPUT
*                       |   |   POSITIVE POWER SUPPLY
*                       |   |   |   NEGATIVE POWER SUPPLY
*                       |   |   |   |   OUTPUT
*                       |   |   |   |   |
X1                      2   9   3   4  11   A1_101E
*
***** A2_101E SUB-CIRCUIT
* CONNECTIONS:          NON-INVERTING INPUT
*                       |   INVERTING INPUT
*                       |   |   POSITIVE POWER SUPPLY
*                       |   |   |   NEGATIVE POWER SUPPLY
*                       |   |   |   |   OUTPUT
*                       |   |   |   |   |
X2                      1  10   3   4  12   A2_101E
*
***** A3_101E SUB-CIRCUIT
* CONNECTIONS:          NON-INVERTING INPUT
*                       |   INVERTING INPUT
*                       |   |   POSITIVE POWER SUPPLY
*                       |   |   |   NEGATIVE POWER SUPPLY
*                       |   |   |   |   OUTPUT
*                       |   |   |   |   |
X3                     14  13   3   4   5   A3_101E
*
R1    11  13  10.0000K
R2    13   5   9.9994K
C2    13   5   0.8000PF
R3    12  14  10.0000K
R4    14   8  10.0000K
*
RFB1   9  11  20.0000K
CC1    9  11  15.0000PF
RFB2  10  12  20.0000K
CC2   10  12  15.0000PF
*
.ENDS
* A1_101E OPERATIONAL AMPLIFIER "MACROMODEL" SUBCIRCUIT
* "E" IS ENHANCED MODEL
* CREATED USING PARTS RELEASE 4.03 ON 11/06/90 AT 12:56
*
* CONNECTIONS:   NON-INVERTING INPUT
*                |   INVERTING INPUT
*                |   |  POSITIVE POWER SUPPLY
*                |   |  | NEGATIVE POWER SUPPLY
*                |   |  | | OUTPUT
*                |   |  | | |
.SUBCKT A1_101E INP INN 3 4 5
*
C1   11 12 8.660E-12
C2    6  7 30.00E-12
DC    5 53 DX
DE   54  5 DX
DLP  90 91 DX
DLN  92 90 DX
DP    4  3 DX
EGND 99  0 POLY(2) (3,0) (4,0) 0 .5 .5
FB    7 99 POLY(5) VB VC VE VLP VLN 0 70.20E6 -70E6 70E6 70E6 -70E6
GA    6  0 11 12 320.4E-6
GCM   0  6 10 99 2.022E-9
IEE  10  4 DC 30.05E-6
HLIM 90  0 VLIM 1K
Q1   11  2 13 QX
Q2   12  1 14 QX
R2    6  9 100.0E3
RC1   3 11 3.121E3
RC2   3 12 3.121E3
RE1  13 10 1.394E3
RE2  14 10 1.394E3
REE  10 99 6.656E6
RO1   8  5 25
RO2   7 99 25
*  RP    3  4 10.70E3
VB    9  0 DC 0
VC    3 53 DC 2.500
VE   54  4 DC 2.500
VLIM  7  8 DC 0
VLP  91  0 DC 10
VLN   0 92 DC 10
****************************
* A1_101 "E" - ENHANCEMENTS
****************************
* OUTPUT SUPPLY MIRROR
FQ3   0 20 POLY(1) VLIM 0  1
DQ1  20 21 DX
DQ2  22 20 DX
VQ1  21  0 0
VQ2  22  0 0
FQ1   3  0 POLY(1) VQ1  2.136E-3  1
FQ2   0  4 POLY(1) VQ2  2.136E-3 -1
* QUIESCIENT CURRENT
RQ    3  4  4.5E4
* DIFF INPUT CAPACITANCE
CDIF  1  2  3.0E-12
* COMMON MODE INPUT CAPACITANCE
C1CM  1  99 1.5E-12
C2CM  2  99 1.5E-12
* INPUT PROTECTION
R1IN  INP 1  1000
D1IN   1  2  DX
R2IN  INN 2  1000
D2IN   2  1  DX
*****************************
.MODEL DX D(IS=800.0E-18)
.MODEL QX NPN(IS=800.0E-18 BF=600)
.ENDS
* A2_101E OPERATIONAL AMPLIFIER "MACROMODEL" SUBCIRCUIT
* "E" IS ENHANCED MODEL
* CREATED USING PARTS RELEASE 4.03 ON 11/06/90 AT 11:30
*
* CONNECTIONS:   NON-INVERTING INPUT
*                |   INVERTING INPUT
*                |   |  POSITIVE POWER SUPPLY
*                |   |  | NEGATIVE POWER SUPPLY
*                |   |  | | OUTPUT
*                |   |  | | |
.SUBCKT A2_101E INP INN 3 4 5
*
C1   11 12 8.660E-12
C2    6  7 30.00E-12
DC    5 53 DX
DE   54  5 DX
DLP  90 91 DX
DLN  92 90 DX
DP    4  3 DX
EGND 99  0 POLY(2) (3,0) (4,0) 0 .5 .5
FB    7 99 POLY(5) VB VC VE VLP VLN 0 59.67E6 -60E6 60E6 60E6 -60E6
GA    6  0 11 12 377.0E-6
GCM   0  6 10 99 1.192E-9
IEE  10  4 DC 30.05E-6
HLIM 90  0 VLIM 1K
Q1   11  2 13 QX
Q2   12  1 14 QX
R2    6  9 100.0E3
RC1   3 11 2.653E3
RC2   3 12 2.653E3
RE1  13 10 926.8
RE2  14 10 926.8
REE  10 99 6.656E6
RO1   8  5 25
RO2   7 99 25
*  RP    3  4 10.70E3
VB    9  0 DC 0
VC    3 53 DC 2.500
VE   54  4 DC 2.500
VLIM  7  8 DC 0
VLP  91  0 DC 10
VLN   0 92 DC 10
****************************
* A2_101 "E" - ENHANCEMENTS
****************************
* OUTPUT SUPPLY MIRROR
FQ3   0 20 POLY(1) VLIM 0  1
DQ1  20 21 DX
DQ2  22 20 DX
VQ1  21  0 0
VQ2  22  0 0
FQ1   3  0 POLY(1) VQ1  2.136E-3  1
FQ2   0  4 POLY(1) VQ2  2.136E-3 -1
* QUIESCIENT CURRENT
RQ    3  4  4.5E4
* DIFF INPUT CAPACITANCE
CDIF  1  2  3.0E-12
* COMMON MODE INPUT CAPACITANCE
C1CM  1  99 1.5E-12
C2CM  2  99 1.5E-12
* INPUT PROTECTION
R1IN  INP 1  1000
D1IN   1  2  DX
R2IN  INN 2  1000
D2IN   2  1  DX
****************************
.MODEL DX D(IS=800.0E-18)
.MODEL QX NPN(IS=800.0E-18 BF=600)
.ENDS
* A3_101E OPERATIONAL AMPLIFIER "MACROMODEL" SUBCIRCUIT
* "E" IS ENHANCED MODEL
* CREATED USING PARTS RELEASE 4.03 ON 11/06/90 AT 11:39
*
* CONNECTIONS:   NON-INVERTING INPUT
*                | INVERTING INPUT
*                | | POSITIVE POWER SUPPLY
*                | | | NEGATIVE POWER SUPPLY
*                | | | | OUTPUT
*                | | | | |
.SUBCKT A3_101E  1 2 3 4 5
*
C1   11 12 8.660E-12
C2    6  7 10.00E-12
DC    5 53 DX
DE   54  5 DX
DLP  90 91 DX
DLN  92 90 DX
DP    4  3 DX
EGND 99  0 POLY(2) (3,0) (4,0) 0 .5 .5
FB    7 99 POLY(5) VB VC VE VLP VLN 0 358.0E6 -40E6 40E6 40E6 -40E6
GA    6  0 11 12 62.83E-6
GCM   0  6 10 99 198.7E-12
IEE  10  4 DC 5.050E-6
HLIM 90  0 VLIM 1K
Q1   11  2 13 QX
Q2   12  1 14 QX
R2    6  9 100.0E3
RC1   3 11 15.92E3
RC2   3 12 15.92E3
RE1  13 10 5.515E3
RE2  14 10 5.515E3
REE  10 99 39.60E6
RO1   8  5 25
RO2   7 99 25
*  RP    3  4 10.61E3
VB    9  0 DC 0
VC    3 53 DC 2.500
VE   54  4 DC 2.500
VLIM  7  8 DC 0
VLP  91  0 DC 10
VLN   0 92 DC 10
****************************
* A3_101 "E" - ENHANCEMENTS
****************************
* OUTPUT SUPPLY MIRROR
FQ3   0 20 POLY(1) VLIM 0  1
DQ1  20 21 DX
DQ2  22 20 DX
VQ1  21  0 0
VQ2  22  0 0
FQ1   3  0 POLY(1) VQ1  2.162E-3  1
FQ2   0  4 POLY(1) VQ2  2.162E-3 -1
* QUIESCIENT CURRENT
RQ    3  4  4.5E4
* DIFF INPUT CAPACITANCE
CDIF  1  2  3.0E-12
* COMMON MODE INPUT CAPACITANCE
C1CM  1  99 1.5E-12
C2CM  2  99 1.5E-12
****************************
.MODEL DX D(IS=800.0E-18)
.MODEL QX NPN(IS=800.0E-18 BF=100)
.ENDS
*************************************************************************
*************************************************************************
* INA102 = A1_102 + A2_102 + A3_102 OP AMPS + PRECISION RESISTOR NETWORK
* CREATED ON 10/30/90 AT 15:01
* REV.A
*  ------------------------------------------------------------------------ 
* |  NOTICE: THE INFORMATION PROVIDED HEREIN IS BELIEVED TO BE RELIABLE;   |
* |  HOWEVER; BURR-BROWN ASSUMES NO RESPONSIBILITY FOR INACCURACIES OR     |
* |  OMISSIONS.  BURR-BROWN ASSUMES NO RESPONSIBILITY FOR THE USE OF THIS  |
* |  INFORMATION, AND ALL USE OF SUCH INFORMATION SHALL BE ENTIRELY AT     |
* |  THE USER'S OWN RISK.  NO PATENT RIGHTS OR LICENSES TO ANY OF THE      |
* |  CIRCUITS DESCRIBED HEREIN ARE IMPLIED OR GRANTED TO ANY THIRD PARTY.  |
* |  BURR-BROWN DOES NOT AUTHORIZE OR WARRANT ANY BURR-BROWN PRODUCT FOR   |
* |  USE IN LIFE-SUPPORT DEVICES AND/OR SYSTEMS.                           |
*  ------------------------------------------------------------------------ 
*
*
***** INA102 SUB-CIRCUIT
* CONNECTIONS:          NON-INVERTING INPUT
*                       |  INVERTING INPUT
*                       |  |  POSITIVE POWER SUPPLY
*                       |  |  |  NEGATIVE POWER SUPPLY
*                       |  |  |  |  OUTPUT
*                       |  |  |  |  |  REFERENCE
*                       |  |  |  |  |  |  GAIN SET 1
*                       |  |  |  |  |  |  |  GAIN SET 2
*                       |  |  |  |  |  |  |  |
.SUBCKT INA102          1  2  3  4  5  8  9 10
*
***** A1_102 SUB-CIRCUIT
* CONNECTIONS:          NON-INVERTING INPUT
*                       |  INVERTING INPUT
*                       |  | POSITIVE POWER SUPPLY
*                       |  |  |  NEGATIVE POWER SUPPLY
*                       |  |  |  |  OUTPUT
*                       |  |  |  |  |
X1                      2  9  3  4 11  A1_102
*
***** A2_102 SUB-CIRCUIT
* CONNECTIONS:          NON-INVERTING INPUT
*                       |  INVERTING INPUT
*                       |  | POSITIVE POWER SUPPLY
*                       |  |  |  NEGATIVE POWER SUPPLY
*                       |  |  |  |  OUTPUT
*                       |  |  |  |  |
X2                      1 10  3  4 12  A2_102
*
***** A3_102 SUB-CIRCUIT
* CONNECTIONS:          NON-INVERTING INPUT
*                       |  INVERTING INPUT
*                       |  | POSITIVE POWER SUPPLY
*                       |  |  |  NEGATIVE POWER SUPPLY
*                       |  |  |  |  OUTPUT
*                       |  |  |  |  |
X3                     14 13  3  4  5  A3_102
*
R1    11  13  20.000K
R2    13   5  19.999K
C2    13   5   6.000PF
R3    12  14  20.000K
R4    14   8  20.000K
C4    14   8   5.000PF
*
RFB1   9  11  20.000K
CC1    9  11   5.000PF
RFB2  10  12  20.000K
CC2   10  12   5.000PF
*
.ENDS
* A1_102 OPERATIONAL AMPLIFIER "MACROMODEL" SUBCIRCUIT
* CREATED USING PARTS RELEASE 4.03 ON 11/06/90 AT 15:39
*
* CONNECTIONS:   NON-INVERTING INPUT
*                | INVERTING INPUT
*                | | POSITIVE POWER SUPPLY
*                | | | NEGATIVE POWER SUPPLY
*                | | | | OUTPUT
*                | | | | |
.SUBCKT A1_102   1 2 3 4 5
*
C1   11 12 8.660E-12
C2    6  7 30.00E-12
DC    5 53 DX
DE   54  5 DX
DLP  90 91 DX
DLN  92 90 DX
DP    4  3 DX
EGND 99  0 POLY(2) (3,0) (4,0) 0 .5 .5
FB    7 99 POLY(5) VB VC VE VLP VLN 0 47.37E6 -50E6 50E6 50E6 -50E6
GA    6  0 11 12 52.78E-6
GCM   0  6 10 99 1.053E-9
IEE  10  4 DC 6.050E-6
HLIM 90  0 VLIM 1K
Q1   11  2 13 QX
Q2   12  1 14 QX
R2    6  9 100.0E3
RC1   3 11 18.95E3
RC2   3 12 18.95E3
RE1  13 10 10.24E3
RE2  14 10 10.24E3
REE  10 99 33.06E6
RO1   8  5 100
RO2   7 99 400
RP    3  4 186.8E3
VB    9  0 DC 0
VC    3 53 DC 2.500
VE   54  4 DC 2.500
VLIM  7  8 DC 0
VLP  91  0 DC 2
VLN   0 92 DC 2
.MODEL DX D(IS=800.0E-18)
.MODEL QX NPN(IS=800.0E-18 BF=120)
.ENDS
* A2_102 OPERATIONAL AMPLIFIER "MACROMODEL" SUBCIRCUIT
* CREATED USING PARTS RELEASE 4.03 ON 11/06/90 AT 15:36
*
* CONNECTIONS:   NON-INVERTING INPUT
*                | INVERTING INPUT
*                | | POSITIVE POWER SUPPLY
*                | | | NEGATIVE POWER SUPPLY
*                | | | | OUTPUT
*                | | | | |
.SUBCKT A2_102   1 2 3 4 5
*
C1   11 12 8.660E-12
C2    6  7 30.00E-12
DC    5 53 DX
DE   54  5 DX
DLP  90 91 DX
DLN  92 90 DX
DP    4  3 DX
EGND 99  0 POLY(2) (3,0) (4,0) 0 .5 .5
FB    7 99 POLY(5) VB VC VE VLP VLN 0 44.21E6 -40E6 40E6 40E6 -40E6
GA    6  0 11 12 56.55E-6
GCM   0  6 10 99 565.5E-12
IEE  10  4 DC 6.050E-6
HLIM 90  0 VLIM 1K
Q1   11  2 13 QX
Q2   12  1 14 QX
R2    6  9 100.0E3
RC1   3 11 17.68E3
RC2   3 12 17.68E3
RE1  13 10 8.988E3
RE2  14 10 8.988E3
REE  10 99 33.06E6
RO1   8  5 100
RO2   7 99 400
RP    3  4 186.8E3
VB    9  0 DC 0
VC    3 53 DC 2.500
VE   54  4 DC 2.500
VLIM  7  8 DC 0
VLP  91  0 DC 2
VLN   0 92 DC 2
.MODEL DX D(IS=800.0E-18)
.MODEL QX NPN(IS=800.0E-18 BF=120)
.ENDS
* A3_102 OPERATIONAL AMPLIFIER "MACROMODEL" SUBCIRCUIT
* CREATED USING PARTS RELEASE 4.03 ON 11/06/90 AT 15:36
*
* CONNECTIONS:   NON-INVERTING INPUT
*                | INVERTING INPUT
*                | | POSITIVE POWER SUPPLY
*                | | | NEGATIVE POWER SUPPLY
*                | | | | OUTPUT
*                | | | | |
.SUBCKT A3_102   1 2 3 4 5
*
C1   11 12 8.660E-12
C2    6  7 30.00E-12
DC    5 53 DX
DE   54  5 DX
DLP  90 91 DX
DLN  92 90 DX
DP    4  3 DX
EGND 99  0 POLY(2) (3,0) (4,0) 0 .5 .5
FB    7 99 POLY(5) VB VC VE VLP VLN 0 44.21E6 -40E6 40E6 40E6 -40E6
GA    6  0 11 12 56.55E-6
GCM   0  6 10 99 565.5E-12
IEE  10  4 DC 6.050E-6
HLIM 90  0 VLIM 1K
Q1   11  2 13 QX
Q2   12  1 14 QX
R2    6  9 100.0E3
RC1   3 11 17.68E3
RC2   3 12 17.68E3
RE1  13 10 8.988E3
RE2  14 10 8.988E3
REE  10 99 33.06E6
RO1   8  5 100
RO2   7 99 400
RP    3  4 186.8E3
VB    9  0 DC 0
VC    3 53 DC 2.500
VE   54  4 DC 2.500
VLIM  7  8 DC 0
VLP  91  0 DC 2
VLN   0 92 DC 2
.MODEL DX D(IS=800.0E-18)
.MODEL QX NPN(IS=800.0E-18 BF=120)
.ENDS
********************************************************************
* INA102E = A1_102E + A2_102E + A3_102E OP AMPS + PRECISION RESISTOR NETWORK
* CREATED ON 10/30/90 AT 15:01
* REV.A
*  ------------------------------------------------------------------------ 
* |  NOTICE: THE INFORMATION PROVIDED HEREIN IS BELIEVED TO BE RELIABLE;   |
* |  HOWEVER; BURR-BROWN ASSUMES NO RESPONSIBILITY FOR INACCURACIES OR     |
* |  OMISSIONS.  BURR-BROWN ASSUMES NO RESPONSIBILITY FOR THE USE OF THIS  |
* |  INFORMATION, AND ALL USE OF SUCH INFORMATION SHALL BE ENTIRELY AT     |
* |  THE USER'S OWN RISK.  NO PATENT RIGHTS OR LICENSES TO ANY OF THE      |
* |  CIRCUITS DESCRIBED HEREIN ARE IMPLIED OR GRANTED TO ANY THIRD PARTY.  |
* |  BURR-BROWN DOES NOT AUTHORIZE OR WARRANT ANY BURR-BROWN PRODUCT FOR   |
* |  USE IN LIFE-SUPPORT DEVICES AND/OR SYSTEMS.                           |
*  ------------------------------------------------------------------------ 
*
*
***** INA102E SUB-CIRCUIT
* CONNECTIONS:          NON-INVERTING INPUT
*                       |  INVERTING INPUT
*                       |  |  POSITIVE POWER SUPPLY
*                       |  |  |  NEGATIVE POWER SUPPLY
*                       |  |  |  |  OUTPUT
*                       |  |  |  |  |  REFERENCE
*                       |  |  |  |  |  |  GAIN SET 1
*                       |  |  |  |  |  |  |  GAIN SET 2
*                       |  |  |  |  |  |  |  |
.SUBCKT INA102E         1  2  3  4  5  8  9 10
*
***** A1_102E SUB-CIRCUIT
* CONNECTIONS:          NON-INVERTING INPUT
*                       |  INVERTING INPUT
*                       |  | POSITIVE POWER SUPPLY
*                       |  |  |  NEGATIVE POWER SUPPLY
*                       |  |  |  |  OUTPUT
*                       |  |  |  |  |
X1                      2  9  3  4 11  A1_102E
*
***** A2_102E SUB-CIRCUIT
* CONNECTIONS:          NON-INVERTING INPUT
*                       |  INVERTING INPUT
*                       |  | POSITIVE POWER SUPPLY
*                       |  |  |  NEGATIVE POWER SUPPLY
*                       |  |  |  |  OUTPUT
*                       |  |  |  |  |
X2                      1 10  3  4 12  A2_102E
*
***** A3_102E SUB-CIRCUIT
* CONNECTIONS:          NON-INVERTING INPUT
*                       |  INVERTING INPUT
*                       |  | POSITIVE POWER SUPPLY
*                       |  |  |  NEGATIVE POWER SUPPLY
*                       |  |  |  |  OUTPUT
*                       |  |  |  |  |
X3                     14 13  3  4  5  A3_102E
*
R1    11  13  20.0000K
R2    13   5  19.9990K
C2    13   5   6.0000PF
R3    12  14  20.0000K
R4    14   8  20.0000K
C4    14   8   5.0000PF
*
RFB1   9  11  20.0000K
CC1    9  11   5.0000PF
RFB2  10  12  20.0000K
CC2   10  12   5.0000PF
*
.ENDS
* A1_102E OPERATIONAL AMPLIFIER "MACROMODEL" SUBCIRCUIT
* "E" IS ENHANCED MODEL
* CREATED USING PARTS RELEASE 4.03 ON 11/06/90 AT 15:39
*
* CONNECTIONS:   NON-INVERTING INPUT
*                | INVERTING INPUT
*                | | POSITIVE POWER SUPPLY
*                | | | NEGATIVE POWER SUPPLY
*                | | | | OUTPUT
*                | | | | |
.SUBCKT A1_102E  1 2 3 4 5
*
C1   11 12 8.660E-12
C2    6  7 30.00E-12
DC    5 53 DX
DE   54  5 DX
DLP  90 91 DX
DLN  92 90 DX
DP    4  3 DX
EGND 99  0 POLY(2) (3,0) (4,0) 0 .5 .5
FB    7 99 POLY(5) VB VC VE VLP VLN 0 47.37E6 -50E6 50E6 50E6 -50E6
GA    6  0 11 12 52.78E-6
GCM   0  6 10 99 1.053E-9
IEE  10  4 DC 6.050E-6
HLIM 90  0 VLIM 1K
Q1   11  2 13 QX
Q2   12  1 14 QX
R2    6  9 100.0E3
RC1   3 11 18.95E3
RC2   3 12 18.95E3
RE1  13 10 10.24E3
RE2  14 10 10.24E3
REE  10 99 33.06E6
RO1   8  5 100
RO2   7 99 400
*  RP    3  4 186.8E3
VB    9  0 DC 0
VC    3 53 DC 2.500
VE   54  4 DC 2.500
VLIM  7  8 DC 0
VLP  91  0 DC 2
VLN   0 92 DC 2
****************************
* A1_102 "E" - ENHANCEMENTS
****************************
* OUTPUT SUPPLY MIRROR
FQ3   0 20 POLY(1) VLIM 0  1
DQ1  20 21 DX
DQ2  22 20 DX
VQ1  21  0 0
VQ2  22  0 0
FQ1   3  0 POLY(1) VQ1  1.45E-4  1
FQ2   0  4 POLY(1) VQ2  1.45E-4 -1
* QUIESCIENT CURRENT
RQ    3  4  2.0E6
* DIFF INPUT CAPACITANCE
CDIF  1  2  2.0E-12
* COMMON MODE INPUT CAPACITANCE
C1CM  1  99 1.0E-12
C2CM  2  99 1.0E-12
****************************
.MODEL DX D(IS=800.0E-18)
.MODEL QX NPN(IS=800.0E-18 BF=120)
.ENDS
* A2_102E OPERATIONAL AMPLIFIER "MACROMODEL" SUBCIRCUIT
* "E" IS ENHANCED MODEL
* CREATED USING PARTS RELEASE 4.03 ON 11/06/90 AT 15:39
*
* CONNECTIONS:   NON-INVERTING INPUT
*                | INVERTING INPUT
*                | | POSITIVE POWER SUPPLY
*                | | | NEGATIVE POWER SUPPLY
*                | | | | OUTPUT
*                | | | | |
.SUBCKT A2_102E  1 2 3 4 5
*
C1   11 12 8.660E-12
C2    6  7 30.00E-12
DC    5 53 DX
DE   54  5 DX
DLP  90 91 DX
DLN  92 90 DX
DP    4  3 DX
EGND 99  0 POLY(2) (3,0) (4,0) 0 .5 .5
FB    7 99 POLY(5) VB VC VE VLP VLN 0 44.21E6 -40E6 40E6 40E6 -40E6
GA    6  0 11 12 56.55E-6
GCM   0  6 10 99 565.5E-12
IEE  10  4 DC 6.050E-6
HLIM 90  0 VLIM 1K
Q1   11  2 13 QX
Q2   12  1 14 QX
R2    6  9 100.0E3
RC1   3 11 17.68E3
RC2   3 12 17.68E3
RE1  13 10 8.988E3
RE2  14 10 8.988E3
REE  10 99 33.06E6
RO1   8  5 100
RO2   7 99 400
*  RP    3  4 186.8E3
VB    9  0 DC 0
VC    3 53 DC 2.500
VE   54  4 DC 2.500
VLIM  7  8 DC 0
VLP  91  0 DC 2
VLN   0 92 DC 2
****************************
* A2_102 "E" - ENHANCEMENTS
****************************
* OUTPUT SUPPLY MIRROR
FQ3   0 20 POLY(1) VLIM 0  1
DQ1  20 21 DX
DQ2  22 20 DX
VQ1  21  0 0
VQ2  22  0 0
FQ1   3  0 POLY(1) VQ1  1.45E-4  1
FQ2   0  4 POLY(1) VQ2  1.45E-4 -1
* QUIESCIENT CURRENT
RQ    3  4  2.0E6
* DIFF INPUT CAPACITANCE
CDIF  1  2  2.0E-12
* COMMON MODE INPUT CAPACITANCE
C1CM  1  99 1.0E-12
C2CM  2  99 1.0E-12
****************************
.MODEL DX D(IS=800.0E-18)
.MODEL QX NPN(IS=800.0E-18 BF=120)
.ENDS
* A3_102E OPERATIONAL AMPLIFIER "MACROMODEL" SUBCIRCUIT
* "E" IS ENHANCED MODEL
* CREATED USING PARTS RELEASE 4.03 ON 11/06/90 AT 15:39
*
* CONNECTIONS:   NON-INVERTING INPUT
*                | INVERTING INPUT
*                | | POSITIVE POWER SUPPLY
*                | | | NEGATIVE POWER SUPPLY
*                | | | | OUTPUT
*                | | | | |
.SUBCKT A3_102E  1 2 3 4 5
*
C1   11 12 8.660E-12
C2    6  7 30.00E-12
DC    5 53 DX
DE   54  5 DX
DLP  90 91 DX
DLN  92 90 DX
DP    4  3 DX
EGND 99  0 POLY(2) (3,0) (4,0) 0 .5 .5
FB    7 99 POLY(5) VB VC VE VLP VLN 0 44.21E6 -40E6 40E6 40E6 -40E6
GA    6  0 11 12 56.55E-6
GCM   0  6 10 99 565.5E-12
IEE  10  4 DC 6.050E-6
HLIM 90  0 VLIM 1K
Q1   11  2 13 QX
Q2   12  1 14 QX
R2    6  9 100.0E3
RC1   3 11 17.68E3
RC2   3 12 17.68E3
RE1  13 10 8.988E3
RE2  14 10 8.988E3
REE  10 99 33.06E6
RO1   8  5 100
RO2   7 99 400
*  RP    3  4 186.8E3
VB    9  0 DC 0
VC    3 53 DC 2.500
VE   54  4 DC 2.500
VLIM  7  8 DC 0
VLP  91  0 DC 2
VLN   0 92 DC 2
****************************
* A3_102 "E" - ENHANCEMENTS
****************************
* OUTPUT SUPPLY MIRROR
FQ3   0 20 POLY(1) VLIM 0  1
DQ1  20 21 DX
DQ2  22 20 DX
VQ1  21  0 0
VQ2  22  0 0
FQ1   3  0 POLY(1) VQ1  1.45E-4  1
FQ2   0  4 POLY(1) VQ2  1.45E-4 -1
* QUIESCIENT CURRENT
RQ    3  4  2.0E6
* DIFF INPUT CAPACITANCE
CDIF  1  2  2.0E-12
* COMMON MODE INPUT CAPACITANCE
C1CM  1  99 1.0E-12
C2CM  2  99 1.0E-12
****************************
.MODEL DX D(IS=800.0E-18)
.MODEL QX NPN(IS=800.0E-18 BF=120)
.ENDS
***************************************************************************
***************************************************************************
* INA103 = A1_103 + A2_103 + A3_103 OP AMPS + PRECISION RESISTOR NETWORK
* CREATED ON 10/30/90 AT 15:01
* REV.A
*  ------------------------------------------------------------------------ 
* |  NOTICE: THE INFORMATION PROVIDED HEREIN IS BELIEVED TO BE RELIABLE;   |
* |  HOWEVER; BURR-BROWN ASSUMES NO RESPONSIBILITY FOR INACCURACIES OR     |
* |  OMISSIONS.  BURR-BROWN ASSUMES NO RESPONSIBILITY FOR THE USE OF THIS  |
* |  INFORMATION, AND ALL USE OF SUCH INFORMATION SHALL BE ENTIRELY AT     |
* |  THE USER'S OWN RISK.  NO PATENT RIGHTS OR LICENSES TO ANY OF THE      |
* |  CIRCUITS DESCRIBED HEREIN ARE IMPLIED OR GRANTED TO ANY THIRD PARTY.  |
* |  BURR-BROWN DOES NOT AUTHORIZE OR WARRANT ANY BURR-BROWN PRODUCT FOR   |
* |  USE IN LIFE-SUPPORT DEVICES AND/OR SYSTEMS.                           |
*  ------------------------------------------------------------------------ 
*
*
***** INA103 SUB-CIRCUIT
* CONNECTIONS:          NON-INVERTING INPUT
*                       |   INVERTING INPUT