.SUBCKT irg4bc20u 1 2 3
**************************************
*      Model Generated by MODPEX     *
*Copyright(c) Symmetry Design Systems*
*         All Rights Reserved        *
*    UNPUBLISHED LICENSED SOFTWARE   *
*   Contains Proprietary Information *
*      Which is The Property of      *
*     SYMMETRY OR ITS LICENSORS      *
*Commercial Use or Resale Restricted *
*   by Symmetry License Agreement    *
**************************************
*Model generated on Nov 18, 96
* MODEL FORMAT: SPICE3
*Symmetry IGBT Model (Version 1.0)
*External Node Designations
*Node 1 -> C
*Node 2 -> G
*Node 3 -> E
M1 9 6 8 8 MSUB L=100u W=100u
* Default values used in MSUB:
* The voltage-dependent capacitances are
* not included. Other default values are:
*   RD=0 RS=0 LD=0 CBD=0 CBS=0 CGBO=0
.MODEL MSUB NMOS LEVEL=1
+VTO=5.18931 KP=4.04225 LAMBDA=0 CGSO=5.11938e-06
RD 7 9 1e-06
RS 4 8 1e-06
Q1 4 7 1 QSUB OFF
.MODEL QSUB PNP
+IS=1e-17 BF=1152 NF=0.85 VAF=526.739
+IKF=1e-09 ISE=3.28453e-09 NE=4 BR=1
+NR=1.00001 VAR=12.2715 IKR=1000 ISC=1.00015e-11
+NC=1.99998 RB=100.726 IRB=1e-05 RBM=1e-05
+RE=1e-08 RC=0.0197579 XTB=0 XTI=4
+EG=0.5 CJC=4.31199e-10 VJC=1.71177 MJC=0.9
+CJE=8.62398e-09 VJE=0.4 MJE=0.9 TF=1.46752e-07
RDS 7 4 1e8
RER 4 3 0.0005
RG 6 2 19.2808
RL 10 11 1
D2 12 11 DCAP
* Default values used in DCAP:
*   RS=0 EG=1.11 XTI=3.0 TT=0
*   BV=infinite IBV=1mA
.MODEL DCAP D IS=1e-32 N=50
+CJO=8.91155e-10 VJ=0.4 M=0.9 FC=0.5
D3 0 11 DL
* Default values used in DL:
*   EG=1.11 XTI=3.0 TT=0 CJO=0
*   RS=0 BV=infinite IBV=1mA
.MODEL DL D IS=1e-10 N=0.4
VFI2 12 0 0
FI2 6 7 VFI2 -1
EV 10 0 7 6 1
CAP 10 13 1.36132e-09
RCAP 10 14 1
D4 0 14 DL
VFI1 13 14 0
FI1 6 7 VFI1 -1
.ENDS irg4bc20u


.SUBCKT irg4pc30u 1 2 3
**************************************
*      Model Generated by MODPEX     *
*Copyright(c) Symmetry Design Systems*
*         All Rights Reserved        *
*    UNPUBLISHED LICENSED SOFTWARE   *
*   Contains Proprietary Information *
*      Which is The Property of      *
*     SYMMETRY OR ITS LICENSORS      *
*Commercial Use or Resale Restricted *
*   by Symmetry License Agreement    *
**************************************
*Model generated on Nov 21, 96
* MODEL FORMAT: SPICE3
*Symmetry IGBT Model (Version 1.0)
*External Node Designations
*Node 1 -> C
*Node 2 -> G
*Node 3 -> E
M1 9 6 8 8 MSUB L=100u W=100u
* Default values used in MSUB:
* The voltage-dependent capacitances are
* not included. Other default values are:
*   RD=0 RS=0 LD=0 CBD=0 CBS=0 CGBO=0
.MODEL MSUB NMOS LEVEL=1
+VTO=4.82022 KP=0.0609588 LAMBDA=0.316264 CGSO=1.03767e-05
RD 7 9 1e-06
RS 4 8 1e-06
Q1 4 7 1 QSUB OFF
.MODEL QSUB PNP
+IS=9.38984e-16 BF=58.6037 NF=0.961597 VAF=8.71312
+IKF=4002.02 ISE=1.72059e-10 NE=1.57757 BR=1.00015
+NR=0.983384 VAR=139.968 IKR=1000 ISC=9.99838e-12
+NC=1.99994 RB=0.0001 IRB=1167.29 RBM=9.99991e-05
+RE=0.0025439 RC=0.0457084 XTB=0.0452967 XTI=0
+EG=0.5 CJC=9.0629e-10 VJC=1.43388 MJC=0.9
+CJE=1.81258e-08 VJE=0.4 MJE=0.9 TF=2.16257e-11
RDS 7 4 1e8
RER 4 3 0.0005
RG 6 2 10.122
RL 10 11 1
D2 12 11 DCAP
* Default values used in DCAP:
*   RS=0 EG=1.11 XTI=3.0 TT=0
*   BV=infinite IBV=1mA
.MODEL DCAP D IS=1e-32 N=50
+CJO=1.74103e-09 VJ=0.4 M=0.9 FC=0.5
D3 0 11 DL
* Default values used in DL:
*   EG=1.11 XTI=3.0 TT=0 CJO=0
*   RS=0 BV=infinite IBV=1mA
.MODEL DL D IS=1e-10 N=0.4
VFI2 12 0 0
FI2 6 7 VFI2 -1
EV 10 0 7 6 1
CAP 10 13 2.58614e-09
RCAP 10 14 1
D4 0 14 DL
VFI1 13 14 0
FI1 6 7 VFI1 -1
.ENDS irg4pc30u


.SUBCKT irgbc20f 1 2 3
**************************************
*      Model Generated by MODPEX     *
*Copyright(c) Symmetry Design Systems*
*         All Rights Reserved        *
*    UNPUBLISHED LICENSED SOFTWARE   *
*   Contains Proprietary Information *
*      Which is The Property of      *
*     SYMMETRY OR ITS LICENSORS      *
*Commercial Use or Resale Restricted *
*   by Symmetry License Agreement    *
**************************************
*Model generated on Apr 23, 96
* Model format: SPICE3
*Symmetry IGBT Model (Version 1.0)
*External Node Designations
*Node 1 -> C
*Node 2 -> G
*Node 3 -> E
M1 9 6 8 8 MSUB L=100u W=100u
* Default values used in MSUB:
* The voltage-dependent capacitances are
* not included. Other default values are:
*   RD=0 RS=0 LD=0 CBD=0 CBS=0 CGBO=0
.MODEL MSUB NMOS LEVEL=1
+VTO=5.73677 KP=2.99696 LAMBDA=0 CGSO=3.36758e-06
RD 7 9 1e-06
RS 4 8 1e-06
Q1 4 7 1 QSUB OFF
.MODEL QSUB PNP
+IS=1e-17 BF=1 NF=1.5 VAF=50820.6
+IKF=31968.6 ISE=2.25195e-07 NE=2.68145 BR=0.1
+NR=0.75 VAR=1942.29 IKR=998.828 ISC=1.00086e-11
+NC=1.35811 RB=0.0001 IRB=1e-05 RBM=1e-05
+RE=1e-08 RC=0.000887928 XTB=0.018921 XTI=4
+EG=1.2 CJC=4.66746e-10 VJC=4.26868 MJC=0.9
+CJE=9.33493e-09 VJE=500 MJE=0.9 TF=8.45977e-07
RDS 7 4 1e8
RER 4 3 0.0533903
RG 6 2 5.61987
RL 10 11 1
D2 12 11 DCAP
* Default values used in DCAP:
*   RS=0 EG=1.11 XTI=3.0 TT=0
*   BV=infinite IBV=1mA
.MODEL DCAP D IS=1e-32 N=50
+CJO=8.26663e-10 VJ=0.4 M=0.9 FC=0.5
D3 0 11 DL
* Default values used in DL:
*   EG=1.11 XTI=3.0 TT=0 CJO=0
*   RS=0 BV=infinite IBV=1mA
.MODEL DL D IS=1e-10 N=0.4
VFI2 12 0 0
FI2 6 7 VFI2 -1
EV 10 0 7 6 1
CAP 10 13 2.26153e-09
RCAP 10 14 1
D4 0 14 DL
VFI1 13 14 0
FI1 6 7 VFI1 -1
.ENDS


.SUBCKT irgbc20k 1 2 3
**************************************
*      Model Generated by MODPEX     *
*Copyright(c) Symmetry Design Systems*
*         All Rights Reserved        *
*    UNPUBLISHED LICENSED SOFTWARE   *
*   Contains Proprietary Information *
*      Which is The Property of      *
*     SYMMETRY OR ITS LICENSORS      *
*Commercial Use or Resale Restricted *
*   by Symmetry License Agreement    *
**************************************
*Model generated on Apr 23, 96
* Model format: SPICE3
*Symmetry IGBT Model (Version 1.0)
*External Node Designations
*Node 1 -> C
*Node 2 -> G
*Node 3 -> E
M1 9 6 8 8 MSUB L=100u W=100u
* Default values used in MSUB:
* The voltage-dependent capacitances are
* not included. Other default values are:
*   RD=0 RS=0 LD=0 CBD=0 CBS=0 CGBO=0
.MODEL MSUB NMOS LEVEL=1
+VTO=4.60416 KP=0.180582 LAMBDA=1.10951e-07 CGSO=3.44819e-06
RD 7 9 0.000723826
RS 4 8 0.987788
Q1 4 7 1 QSUB OFF
.MODEL QSUB PNP
+IS=4.18987e-17 BF=9482.61 NF=0.952864 VAF=366743
+IKF=1.97239e+06 ISE=1e-06 NE=2.81326 BR=1.00019
+NR=1.17561 VAR=60455.6 IKR=1000 ISC=1.00174e-11
+NC=2.12686 RB=0.00010001 IRB=1e-05 RBM=0.000100009
+RE=1e-08 RC=0.00829043 XTB=0.0598922 XTI=1.51724e-13
+EG=0.5 CJC=6.83904e-10 VJC=1.50313 MJC=0.9
+CJE=1.36781e-08 VJE=9.71347 MJE=0.9 TF=9.67722e-09
RDS 7 4 1e8
RER 4 3 0.164983
RG 6 2 28.6038
RL 10 11 1
D2 12 11 DCAP
* Default values used in DCAP:
*   RS=0 EG=1.11 XTI=3.0 TT=0
*   BV=infinite IBV=1mA
.MODEL DCAP D IS=1e-32 N=50
+CJO=6.49463e-10 VJ=0.4 M=0.9 FC=0.5
D3 0 11 DL
* Default values used in DL:
*   EG=1.11 XTI=3.0 TT=0 CJO=0
*   RS=0 BV=infinite IBV=1mA
.MODEL DL D IS=1e-10 N=0.4
VFI2 12 0 0
FI2 6 7 VFI2 -1
EV 10 0 7 6 1
CAP 10 13 2.03618e-10
RCAP 10 14 1
D4 0 14 DL
VFI1 13 14 0
FI1 6 7 VFI1 -1
.ENDS


.SUBCKT irgbc20s 1 2 3
**************************************
*      Model Generated by MODPEX     *
*Copyright(c) Symmetry Design Systems*
*         All Rights Reserved        *
*    UNPUBLISHED LICENSED SOFTWARE   *
*   Contains Proprietary Information *
*      Which is The Property of      *
*     SYMMETRY OR ITS LICENSORS      *
*Commercial Use or Resale Restricted *
*   by Symmetry License Agreement    *
**************************************
*Model generated on Apr 23, 96
* Model format: SPICE3
*Symmetry IGBT Model (Version 1.0)
*External Node Designations
*Node 1 -> C
*Node 2 -> G
*Node 3 -> E
M1 9 6 8 8 MSUB L=100u W=100u
* Default values used in MSUB:
* The voltage-dependent capacitances are
* not included. Other default values are:
*   RD=0 RS=0 LD=0 CBD=0 CBS=0 CGBO=0
.MODEL MSUB NMOS LEVEL=1
+VTO=4.65954 KP=0.420118 LAMBDA=0 CGSO=3.80019e-06
RD 7 9 1e-06
RS 4 8 0.0378348
Q1 4 7 1 QSUB OFF
.MODEL QSUB PNP
+IS=1e-17 BF=4.08544 NF=0.885873 VAF=24920.3
+IKF=127.449 ISE=1e-17 NE=4 BR=52.374
+NR=0.75 VAR=4.18026 IKR=1279.95 ISC=9.99999e-18
+NC=1.84527 RB=0.0001 IRB=1015.86 RBM=9.96137e-05
+RE=1e-08 RC=0.0451674 XTB=8.50725 XTI=4
+EG=1.2 CJC=6.02892e-10 VJC=0.924093 MJC=0.9
+CJE=1.20578e-08 VJE=0.4 MJE=0.9 TF=9.20199e-07
RDS 7 4 1e8
RER 4 3 0.0005
RG 6 2 78.4375
RL 10 11 1
D2 12 11 DCAP
* Default values used in DCAP:
*   RS=0 EG=1.11 XTI=3.0 TT=0
*   BV=infinite IBV=1mA
.MODEL DCAP D IS=1e-32 N=50
+CJO=3.26141e-10 VJ=0.4 M=0.9 FC=0.5
D3 0 11 DL
* Default values used in DL:
*   EG=1.11 XTI=3.0 TT=0 CJO=0
*   RS=0 BV=infinite IBV=1mA
.MODEL DL D IS=1e-10 N=0.4
VFI2 12 0 0
FI2 6 7 VFI2 -1
EV 10 0 7 6 1
CAP 10 13 4.95833e-09
RCAP 10 14 1
D4 0 14 DL
VFI1 13 14 0
FI1 6 7 VFI1 -1
.ENDS


.SUBCKT irgbc20u 1 2 3
**************************************
*      Model Generated by MODPEX     *
*Copyright(c) Symmetry Design Systems*
*         All Rights Reserved        *
*    UNPUBLISHED LICENSED SOFTWARE   *
*   Contains Proprietary Information *
*      Which is The Property of      *
*     SYMMETRY OR ITS LICENSORS      *
*Commercial Use or Resale Restricted *
*   by Symmetry License Agreement    *
**************************************
*Model generated on Dec 19, 96
* MODEL FORMAT: SPICE3
*Symmetry IGBT Model (Version 1.0)
*External Node Designations
*Node 1 -> C
*Node 2 -> G
*Node 3 -> E
M1 9 6 8 8 MSUB L=100u W=100u
* Default values used in MSUB:
* The voltage-dependent capacitances are
* not included. Other default values are:
*   RD=0 RS=0 LD=0 CBD=0 CBS=0 CGBO=0
.MODEL MSUB NMOS LEVEL=1
+VTO=4.44622 KP=0.0312941 LAMBDA=0 CGSO=3.09075e-06
RD 7 9 1e-06
RS 4 8 1e-06
Q1 4 7 1 QSUB OFF
.MODEL QSUB PNP
+IS=1e-17 BF=198.583 NF=1.40586 VAF=13260.1
+IKF=24.8626 ISE=2.08318e-10 NE=2.80107 BR=1
+NR=0.999972 VAR=1383.36 IKR=1000 ISC=9.99986e-12
+NC=1.99885 RB=0.0001 IRB=942.268 RBM=0.0001
+RE=1e-08 RC=0.00160155 XTB=0 XTI=4
+EG=1.2 CJC=3.93709e-10 VJC=5.12427 MJC=0.9
+CJE=3.93708e-09 VJE=0.618897 MJE=0.9 TF=2.89236e-10
RDS 7 4 1e8
RER 4 3 0.0005
RG 6 2 1
RL 10 11 1
D2 12 11 DCAP
* Default values used in DCAP:
*   RS=0 EG=1.11 XTI=3.0 TT=0
*   BV=infinite IBV=1mA
.MODEL DCAP D IS=1e-32 N=50
+CJO=4.491e-10 VJ=1.25635 M=0.9 FC=0.5
D3 0 11 DL
* Default values used in DL:
*   EG=1.11 XTI=3.0 TT=0 CJO=0
*   RS=0 BV=infinite IBV=1mA
.MODEL DL D IS=1e-10 N=0.4
VFI2 12 0 0
FI2 6 7 VFI2 -1
EV 10 0 7 6 1
CAP 10 13 3.57932e-10
RCAP 10 14 1
D4 0 14 DL
VFI1 13 14 0
FI1 6 7 VFI1 -1
.ENDS irgbc20u


.SUBCKT irgbc30f 1 2 3
**************************************
*      Model Generated by MODPEX     *
*Copyright(c) Symmetry Design Systems*
*         All Rights Reserved        *
*    UNPUBLISHED LICENSED SOFTWARE   *
*   Contains Proprietary Information *
*      Which is The Property of      *
*     SYMMETRY OR ITS LICENSORS      *
*Commercial Use or Resale Restricted *
*   by Symmetry License Agreement    *
**************************************
*Model generated on Apr 23, 96
* Model format: SPICE3
*Symmetry IGBT Model (Version 1.0)
*External Node Designations
*Node 1 -> C
*Node 2 -> G
*Node 3 -> E
M1 9 6 8 8 MSUB L=100u W=100u
* Default values used in MSUB:
* The voltage-dependent capacitances are
* not included. Other default values are:
*   RD=0 RS=0 LD=0 CBD=0 CBS=0 CGBO=0
.MODEL MSUB NMOS LEVEL=1
+VTO=3.96709 KP=0.0532056 LAMBDA=0 CGSO=6.95638e-06
RD 7 9 1e-06
RS 4 8 1.00011e-06
Q1 4 7 1 QSUB OFF
.MODEL QSUB PNP
+IS=2.88637e-17 BF=168.256 NF=0.85 VAF=55939.6
+IKF=50.1827 ISE=1.30158e-08 NE=2.05345 BR=3.81969
+NR=0.75 VAR=1394.01 IKR=998.618 ISC=1e-17
+NC=1 RB=0.0001 IRB=1016.82 RBM=1e-05
+RE=1e-08 RC=0.000941518 XTB=0 XTI=3.98446
+EG=0.597279 CJC=9.92389e-10 VJC=3.08528 MJC=0.9
+CJE=1.98478e-08 VJE=0.4 MJE=0.9 TF=4.28772e-09
RDS 7 4 1e8
RER 4 3 0.0005
RG 6 2 4.26985
RL 10 11 1
D2 12 11 DCAP
* Default values used in DCAP:
*   RS=0 EG=1.11 XTI=3.0 TT=0
*   BV=infinite IBV=1mA
.MODEL DCAP D IS=1e-32 N=50
+CJO=1.34353e-09 VJ=0.4 M=0.9 FC=0.5
D3 0 11 DL
* Default values used in DL:
*   EG=1.11 XTI=3.0 TT=0 CJO=0
*   RS=0 BV=infinite IBV=1mA
.MODEL DL D IS=1e-10 N=0.4
VFI2 12 0 0
FI2 6 7 VFI2 -1
EV 10 0 7 6 1
CAP 10 13 3.60163e-09
RCAP 10 14 1
D4 0 14 DL
VFI1 13 14 0
FI1 6 7 VFI1 -1
.ENDS


.SUBCKT irgbc30k 1 2 3
**************************************
*      Model Generated by MODPEX     *
*Copyright(c) Symmetry Design Systems*
*         All Rights Reserved        *
*    UNPUBLISHED LICENSED SOFTWARE   *
*   Contains Proprietary Information *
*      Which is The Property of      *
*     SYMMETRY OR ITS LICENSORS      *
*Commercial Use or Resale Restricted *
*   by Symmetry License Agreement    *
**************************************
*Model generated on Apr 23, 96
* Model format: SPICE3
*Symmetry IGBT Model (Version 1.0)
*External Node Designations
*Node 1 -> C
*Node 2 -> G
*Node 3 -> E
M1 9 6 8 8 MSUB L=100u W=100u
* Default values used in MSUB:
* The voltage-dependent capacitances are
* not included. Other default values are:
*   RD=0 RS=0 LD=0 CBD=0 CBS=0 CGBO=0
.MODEL MSUB NMOS LEVEL=1
+VTO=5.19682 KP=0.59827 LAMBDA=0 CGSO=7.49986e-06
RD 7 9 1e-06
RS 4 8 0.0355896
Q1 4 7 1 QSUB OFF
.MODEL QSUB PNP
+IS=1e-17 BF=45.5711 NF=0.85 VAF=3690.02
+IKF=14.6003 ISE=6.26951e-10 NE=1.54654 BR=3.813
+NR=0.75 VAR=1364.68 IKR=998.607 ISC=1.17932e-10
+NC=1 RB=0.0001 IRB=1019.94 RBM=1e-05
+RE=1e-08 RC=0.000914168 XTB=0 XTI=4
+EG=1.2 CJC=1.20709e-09 VJC=1.98275 MJC=0.9
+CJE=2.41418e-08 VJE=0.4 MJE=0.9 TF=3.09678e-08
RDS 7 4 1e8
RER 4 3 0.0162637
RG 6 2 12.6556
RL 10 11 1
D2 12 11 DCAP
* Default values used in DCAP:
*   RS=0 EG=1.11 XTI=3.0 TT=0
*   BV=infinite IBV=1mA
.MODEL DCAP D IS=1e-32 N=50
+CJO=1.26405e-09 VJ=0.4 M=0.9 FC=0.5
D3 0 11 DL
* Default values used in DL:
*   EG=1.11 XTI=3.0 TT=0 CJO=0
*   RS=0 BV=infinite IBV=1mA
.MODEL DL D IS=1e-10 N=0.4
VFI2 12 0 0
FI2 6 7 VFI2 -1
EV 10 0 7 6 1
CAP 10 13 2.23454e-09
RCAP 10 14 1
D4 0 14 DL
VFI1 13 14 0
FI1 6 7 VFI1 -1
.ENDS


.SUBCKT irgbc30ud2 1 2 3
**************************************
*      Model Generated by MODPEX     *
*Copyright(c) Symmetry Design Systems*
*         All Rights Reserved        *
*    UNPUBLISHED LICENSED SOFTWARE   *
*   Contains Proprietary Information *
*      Which is The Property of      *
*     SYMMETRY OR ITS LICENSORS      *
*Commercial Use or Resale Restricted *
*   by Symmetry License Agreement    *
**************************************
*Model generated on Dec 11, 96
* MODEL FORMAT: SPICE3
*Symmetry IGBT Model (Version 1.0)
*External Node Designations
*Node 1 -> C
*Node 2 -> G
*Node 3 -> E
M1 9 6 8 8 MSUB L=100u W=100u
* Default values used in MSUB:
* The voltage-dependent capacitances are
* not included. Other default values are:
*   RD=0 RS=0 LD=0 CBD=0 CBS=0 CGBO=0
.MODEL MSUB NMOS LEVEL=1
+VTO=4.83033 KP=0.115731 LAMBDA=0 CGSO=6.46859e-06
RD 7 9 1e-06
RS 4 8 1e-06
Q1 4 7 1 QSUB OFF
.MODEL QSUB PNP
+IS=1.95957e-17 BF=18.9992 NF=1.5 VAF=990383
+IKF=975.575 ISE=1e-17 NE=4 BR=0.998254
+NR=1.11308 VAR=5247.44 IKR=999.999 ISC=1.00391e-11
+NC=2.00879 RB=0.0001 IRB=1006.41 RBM=9.99999e-05
+RE=1e-08 RC=0.00243384 XTB=0 XTI=3.32885
+EG=1.2 CJC=7.07808e-10 VJC=4.22929 MJC=0.9
+CJE=7.07808e-09 VJE=1.7906 MJE=0.9 TF=1.64699e-09
RDS 7 4 1e8
RER 4 3 0.0005
RG 6 2 63.6063
RL 10 11 1
D2 12 11 DCAP
* Default values used in DCAP:
*   RS=0 EG=1.11 XTI=3.0 TT=0
*   BV=infinite IBV=1mA
.MODEL DCAP D IS=1e-32 N=50
+CJO=5.82187e-10 VJ=1.95014 M=0.9 FC=0.5
D3 0 11 DL
* Default values used in DL:
*   EG=1.11 XTI=3.0 TT=0 CJO=0
*   RS=0 BV=infinite IBV=1mA
.MODEL DL D IS=1e-10 N=0.4
VFI2 12 0 0
FI2 6 7 VFI2 -1
EV 10 0 7 6 1
CAP 10 13 6.48282e-10
RCAP 10 14 1
D4 0 14 DL
VFI1 13 14 0
FI1 6 7 VFI1 -1
.ENDS irgbc30ud2


.SUBCKT irglc60kd1 1 2 3
**************************************
*      Model Generated by MODPEX     *
*Copyright(c) Symmetry Design Systems*
*         All Rights Reserved        *
*    UNPUBLISHED LICENSED SOFTWARE   *
*   Contains Proprietary Information *
*      Which is The Property of      *
*     SYMMETRY OR ITS LICENSORS      *
*Commercial Use or Resale Restricted *
*   by Symmetry License Agreement    *
**************************************
*Model generated on Apr 23, 96
* Model format: SPICE3
*Symmetry IGBT Model (Version 1.0)
*External Node Designations
*Node 1 -> C
*Node 2 -> G
*Node 3 -> E
M1 9 6 8 8 MSUB L=100u W=100u
* Default values used in MSUB:
* The voltage-dependent capacitances are
* not included. Other default values are:
*   RD=0 RS=0 LD=0 CBD=0 CBS=0 CGBO=0
.MODEL MSUB NMOS LEVEL=1
+VTO=5.502 KP=999.772 LAMBDA=0.0936951 CGSO=4.61849e-05
RD 7 9 1e-06
RS 4 8 1e-06
Q1 4 7 1 QSUB OFF
.MODEL QSUB PNP
+IS=4.17287e-17 BF=1 NF=0.85 VAF=6442.81
+IKF=1e-09 ISE=1e-06 NE=4 BR=1.81391
+NR=0.749998 VAR=5094.67 IKR=1010.09 ISC=1.21471e-11
+NC=1.09015 RB=0.0001 IRB=985.606 RBM=1e-05
+RE=1e-08 RC=1e-08 XTB=0 XTI=4
+EG=1.2 CJC=6.54228e-09 VJC=1.80087 MJC=0.9
+CJE=1.30846e-07 VJE=0.4 MJE=0.9 TF=1e-09
RDS 7 4 1e8
RER 4 3 0.0464676
RG 6 2 17.1974
RL 10 11 1
D2 12 11 DCAP
* Default values used in DCAP:
*   RS=0 EG=1.11 XTI=3.0 TT=0
*   BV=infinite IBV=1mA
.MODEL DCAP D IS=1e-32 N=50
+CJO=4.6445e-09 VJ=0.4 M=0.9 FC=0.5
D3 0 11 DL
* Default values used in DL:
*   EG=1.11 XTI=3.0 TT=0 CJO=0
*   RS=0 BV=infinite IBV=1mA
.MODEL DL D IS=1e-10 N=0.4
VFI2 12 0 0
FI2 6 7 VFI2 -1
EV 10 0 7 6 1
CAP 10 13 7.08675e-09
RCAP 10 14 1
D4 0 14 DL
VFI1 13 14 0
FI1 6 7 VFI1 -1
.ENDS


.SUBCKT irgpc20f 1 2 3
**************************************
*      Model Generated by MODPEX     *
*Copyright(c) Symmetry Design Systems*
*         All Rights Reserved        *
*    UNPUBLISHED LICENSED SOFTWARE   *
*   Contains Proprietary Information *
*      Which is The Property of      *
*     SYMMETRY OR ITS LICENSORS      *
*Commercial Use or Resale Restricted *
*   by Symmetry License Agreement    *
**************************************
*Model generated on Apr 23, 96
* Model format: SPICE3
*Symmetry IGBT Model (Version 1.0)
*External Node Designations
*Node 1 -> C
*Node 2 -> G
*Node 3 -> E
M1 9 6 8 8 MSUB L=100u W=100u
* Default values used in MSUB:
* The voltage-dependent capacitances are
* not included. Other default values are:
*   RD=0 RS=0 LD=0 CBD=0 CBS=0 CGBO=0
.MODEL MSUB NMOS LEVEL=1
+VTO=5.73677 KP=2.99696 LAMBDA=0 CGSO=3.36758e-06
RD 7 9 1e-06
RS 4 8 1e-06
Q1 4 7 1 QSUB OFF
.MODEL QSUB PNP
+IS=1e-17 BF=1 NF=1.5 VAF=50820.6
+IKF=31968.6 ISE=2.25195e-07 NE=2.68145 BR=0.1
+NR=0.75 VAR=1942.29 IKR=998.828 ISC=1.00086e-11
+NC=1.35811 RB=0.0001 IRB=1e-05 RBM=1e-05
+RE=1e-08 RC=0.000887928 XTB=0.018921 XTI=4
+EG=1.2 CJC=4.66746e-10 VJC=4.26868 MJC=0.9
+CJE=9.33493e-09 VJE=500 MJE=0.9 TF=8.45977e-07
RDS 7 4 1e8
RER 4 3 0.0533903
RG 6 2 5.61987
RL 10 11 1
D2 12 11 DCAP
* Default values used in DCAP:
*   RS=0 EG=1.11 XTI=3.0 TT=0
*   BV=infinite IBV=1mA
.MODEL DCAP D IS=1e-32 N=50
+CJO=8.26663e-10 VJ=0.4 M=0.9 FC=0.5
D3 0 11 DL
* Default values used in DL:
*   EG=1.11 XTI=3.0 TT=0 CJO=0
*   RS=0 BV=infinite IBV=1mA
.MODEL DL D IS=1e-10 N=0.4
VFI2 12 0 0
FI2 6 7 VFI2 -1
EV 10 0 7 6 1
CAP 10 13 2.26153e-09
RCAP 10 14 1
D4 0 14 DL
VFI1 13 14 0
FI1 6 7 VFI1 -1
.ENDS


.SUBCKT irgpc20u 1 2 3
**************************************
*      Model Generated by MODPEX     *
*Copyright(c) Symmetry Design Systems*
*         All Rights Reserved        *
*    UNPUBLISHED LICENSED SOFTWARE   *
*   Contains Proprietary Information *
*      Which is The Property of      *
*     SYMMETRY OR ITS LICENSORS      *
*Commercial Use or Resale Restricted *
*   by Symmetry License Agreement    *
**************************************
*Model generated on Apr 23, 96
* Model format: SPICE3
*Symmetry IGBT Model (Version 1.0)
*External Node Designations
*Node 1 -> C
*Node 2 -> G
*Node 3 -> E
M1 9 6 8 8 MSUB L=100u W=100u
* Default values used in MSUB:
* The voltage-dependent capacitances are
* not included. Other default values are:
*   RD=0 RS=0 LD=0 CBD=0 CBS=0 CGBO=0
.MODEL MSUB NMOS LEVEL=1
+VTO=4.73084 KP=0.129304 LAMBDA=0 CGSO=3.17821e-06
RD 7 9 1e-06
RS 4 8 2.00721e-05
Q1 4 7 1 QSUB OFF
.MODEL QSUB PNP
+IS=1e-17 BF=74.5219 NF=1.5 VAF=2981.38
+IKF=17.2342 ISE=1.19725e-10 NE=2.74943 BR=1
+NR=0.999946 VAR=297.033 IKR=1000 ISC=9.99995e-12
+NC=1.99994 RB=0.0001 IRB=959.795 RBM=0.0001
+RE=1e-08 RC=0.00104284 XTB=0 XTI=3.82991
+EG=1.2 CJC=4.1134e-10 VJC=5.35958 MJC=0.9
+CJE=4.1134e-09 VJE=0.684183 MJE=0.9 TF=1.5662e-08
RDS 7 4 1e8
RER 4 3 0.0005
RG 6 2 2
RL 10 11 1
D2 12 11 DCAP
* Default values used in DCAP:
*   RS=0 EG=1.11 XTI=3.0 TT=0
*   BV=infinite IBV=1mA
.MODEL DCAP D IS=1e-32 N=50
+CJO=6.02195e-10 VJ=0.603807 M=0.9 FC=0.5
D3 0 11 DL
* Default values used in DL:
*   EG=1.11 XTI=3.0 TT=0 CJO=0
*   RS=0 BV=infinite IBV=1mA
.MODEL DL D IS=1e-10 N=0.4
VFI2 12 0 0
FI2 6 7 VFI2 -1
EV 10 0 7 6 1
CAP 10 13 1.82191e-09
RCAP 10 14 1
D4 0 14 DL
VFI1 13 14 0
FI1 6 7 VFI1 -1
.ENDS


.SUBCKT irgpc40k 1 2 3
**************************************
*      Model Generated by MODPEX     *
*Copyright(c) Symmetry Design Systems*
*         All Rights Reserved        *
*    UNPUBLISHED LICENSED SOFTWARE   *
*   Contains Proprietary Information *
*      Which is The Property of      *
*     SYMMETRY OR ITS LICENSORS      *
*Commercial Use or Resale Restricted *
*   by Symmetry License Agreement    *
**************************************
*Model generated on Apr 23, 96
* Model format: SPICE3
*Symmetry IGBT Model (Version 1.0)
*External Node Designations
*Node 1 -> C
*Node 2 -> G
*Node 3 -> E
M1 9 6 8 8 MSUB L=100u W=100u
* Default values used in MSUB:
* The voltage-dependent capacitances are
* not included. Other default values are:
*   RD=0 RS=0 LD=0 CBD=0 CBS=0 CGBO=0
.MODEL MSUB NMOS LEVEL=1
+VTO=4.97145 KP=0.296969 LAMBDA=0 CGSO=1.49142e-05
RD 7 9 1e-06
RS 4 8 1.07725e-06
Q1 4 7 1 QSUB OFF
.MODEL QSUB PNP
+IS=5.15511e-16 BF=52.6659 NF=0.85 VAF=7673.27
+IKF=28.2016 ISE=7.72083e-07 NE=2.18082 BR=1.04959
+NR=1.5 VAR=58.0888 IKR=1000.03 ISC=1.02296e-11
+NC=1.15424 RB=0.0001 IRB=1179.37 RBM=7.73069e-05
+RE=1e-08 RC=0.00408682 XTB=0.70572 XTI=2.48796
+EG=0.5 CJC=2.72638e-09 VJC=1.65811 MJC=0.9
+CJE=5.45276e-08 VJE=10.1033 MJE=0.9 TF=4.80492e-09
RDS 7 4 1e8
RER 4 3 0.0005
RG 6 2 5.37792
RL 10 11 1
D2 12 11 DCAP
* Default values used in DCAP:
*   RS=0 EG=1.11 XTI=3.0 TT=0
*   BV=infinite IBV=1mA
.MODEL DCAP D IS=1e-32 N=50
+CJO=2.26635e-09 VJ=0.4 M=0.9 FC=0.5
D3 0 11 DL
* Default values used in DL:
*   EG=1.11 XTI=3.0 TT=0 CJO=0
*   RS=0 BV=infinite IBV=1mA
.MODEL DL D IS=1e-10 N=0.4
VFI2 12 0 0
FI2 6 7 VFI2 -1
EV 10 0 7 6 1
CAP 10 13 6.78829e-09
RCAP 10 14 1
D4 0 14 DL
VFI1 13 14 0
FI1 6 7 VFI1 -1
.ENDS


.SUBCKT irgpc40ud2 1 2 3
**************************************
*      Model Generated by MODPEX     *
*Copyright(c) Symmetry Design Systems*
*         All Rights Reserved        *
*    UNPUBLISHED LICENSED SOFTWARE   *
*   Contains Proprietary Information *
*      Which is The Property of      *
*     SYMMETRY OR ITS LICENSORS      *
*Commercial Use or Resale Restricted *
*   by Symmetry License Agreement    *
**************************************
*Model generated on May 15, 96
* Model format: SPICE3
*Symmetry IGBT Model (Version 1.0)
*External Node Designations
*Node 1 -> C
*Node 2 -> G
*Node 3 -> E
M1 9 6 8 8 MSUB L=100u W=100u
* Default values used in MSUB:
* The voltage-dependent capacitances are
* not included. Other default values are:
*   RD=0 RS=0 LD=0 CBD=0 CBS=0 CGBO=0
.MODEL MSUB NMOS LEVEL=1
+VTO=5.72142 KP=7.94822 LAMBDA=4.85531 CGSO=1.4875e-05
RD 7 9 0.000463076
RS 4 8 0.000387556
Q1 4 7 1 QSUB OFF
.MODEL QSUB PNP
+IS=1e-17 BF=71.0036 NF=1.39381 VAF=337.043
+IKF=4691.16 ISE=1e-17 NE=1.94621 BR=2.80204
+NR=0.75 VAR=177.833 IKR=1000 ISC=4.4982e-12
+NC=1 RB=0.0001 IRB=902.586 RBM=1e-05
+RE=1e-08 RC=0.000900685 XTB=0 XTI=3.00326
+EG=1.2 CJC=1.71639e-09 VJC=3.08184 MJC=0.9
+CJE=1.71639e-08 VJE=1.79859 MJE=0.602318 TF=2.94413e-10
RDS 7 4 1e8
RER 4 3 0.0415491
RG 6 2 83.3792
RL 10 11 1
D2 12 11 DCAP
* Default values used in DCAP:
*   RS=0 EG=1.11 XTI=3.0 TT=0
*   BV=infinite IBV=1mA
.MODEL DCAP D IS=1e-32 N=50
+CJO=1.2819e-09 VJ=0.874667 M=0.9 FC=0.5
D3 0 11 DL
* Default values used in DL:
*   EG=1.11 XTI=3.0 TT=0 CJO=0
*   RS=0 BV=infinite IBV=1mA
.MODEL DL D IS=1e-10 N=0.4
VFI2 12 0 0
FI2 6 7 VFI2 -1
EV 10 0 7 6 1
CAP 10 13 2.9857e-10
RCAP 10 14 1
D4 0 14 DL
VFI1 13 14 0
FI1 6 7 VFI1 -1
.ENDS


.SUBCKT irgpc50k 1 2 3
**************************************
*      Model Generated by MODPEX     *
*Copyright(c) Symmetry Design Systems*
*         All Rights Reserved        *
*    UNPUBLISHED LICENSED SOFTWARE   *
*   Contains Proprietary Information *
*      Which is The Property of      *
*     SYMMETRY OR ITS LICENSORS      *
*Commercial Use or Resale Restricted *
*   by Symmetry License Agreement    *
**************************************
*Model generated on Apr 23, 96
* Model format: SPICE3
*Symmetry IGBT Model (Version 1.0)
*External Node Designations
*Node 1 -> C
*Node 2 -> G
*Node 3 -> E
M1 9 6 8 8 MSUB L=100u W=100u
* Default values used in MSUB:
* The voltage-dependent capacitances are
* not included. Other default values are:
*   RD=0 RS=0 LD=0 CBD=0 CBS=0 CGBO=0
.MODEL MSUB NMOS LEVEL=1
+VTO=5.02824 KP=0.384565 LAMBDA=0 CGSO=2.95731e-05
RD 7 9 1e-06
RS 4 8 0.00868579
Q1 4 7 1 QSUB OFF
.MODEL QSUB PNP
+IS=1e-17 BF=54.9059 NF=0.903464 VAF=1062.95
+IKF=120.768 ISE=1.08576e-10 NE=1.59251 BR=1.00096
+NR=0.978302 VAR=154.623 IKR=1000 ISC=1.00268e-11
+NC=1.99997 RB=0.0001 IRB=613.665 RBM=9.98926e-05
+RE=1e-08 RC=0.00854135 XTB=0 XTI=2.9414
+EG=0.5 CJC=5.34846e-09 VJC=1.05939 MJC=0.9
+CJE=1.06969e-07 VJE=0.4 MJE=0.9 TF=2.0587e-09
RDS 7 4 1e8
RER 4 3 0.0005
RG 6 2 3.85589
RL 10 11 1
D2 12 11 DCAP
* Default values used in DCAP:
*   RS=0 EG=1.11 XTI=3.0 TT=0
*   BV=infinite IBV=1mA
.MODEL DCAP D IS=1e-32 N=50
+CJO=4.4512e-09 VJ=0.4 M=0.9 FC=0.5
D3 0 11 DL
* Default values used in DL:
*   EG=1.11 XTI=3.0 TT=0 CJO=0
*   RS=0 BV=infinite IBV=1mA
.MODEL DL D IS=1e-10 N=0.4
VFI2 12 0 0
FI2 6 7 VFI2 -1
EV 10 0 7 6 1
CAP 10 13 9.45603e-09
RCAP 10 14 1
D4 0 14 DL
VFI1 13 14 0
FI1 6 7 VFI1 -1
.ENDS


.SUBCKT irgpc50m 1 2 3
**************************************
*      Model Generated by MODPEX     *
*Copyright(c) Symmetry Design Systems*
*         All Rights Reserved        *
*    UNPUBLISHED LICENSED SOFTWARE   *
*   Contains Proprietary Information *
*      Which is The Property of      *
*     SYMMETRY OR ITS LICENSORS      *
*Commercial Use or Resale Restricted *
*   by Symmetry License Agreement    *
**************************************
*Model generated on Apr 23, 96
* Model format: SPICE3
*Symmetry IGBT Model (Version 1.0)
*External Node Designations
*Node 1 -> C
*Node 2 -> G
*Node 3 -> E
M1 9 6 8 8 MSUB L=100u W=100u
* Default values used in MSUB:
* The voltage-dependent capacitances are
* not included. Other default values are:
*   RD=0 RS=0 LD=0 CBD=0 CBS=0 CGBO=0
.MODEL MSUB NMOS LEVEL=1
+VTO=5.4699 KP=4.6916 LAMBDA=0 CGSO=2.94062e-05
RD 7 9 1e-06
RS 4 8 0.00443867
Q1 4 7 1 QSUB OFF
.MODEL QSUB PNP
+IS=1e-17 BF=4721.95 NF=1.5 VAF=2132.54
+IKF=11079.8 ISE=1.61953e-07 NE=2.08344 BR=5.29263
+NR=0.75 VAR=188.915 IKR=1017.11 ISC=9.96989e-12
+NC=1.98322 RB=0.0001 IRB=505.709 RBM=1e-05
+RE=1e-08 RC=0.000492683 XTB=0.0237666 XTI=0
+EG=0.5 CJC=5.99075e-09 VJC=0.997501 MJC=0.9
+CJE=1.19815e-07 VJE=499.83 MJE=0.9 TF=2.71239e-07
RDS 7 4 1e8
RER 4 3 0.0005
RG 6 2 9.89027
RL 10 11 1
D2 12 11 DCAP
* Default values used in DCAP:
*   RS=0 EG=1.11 XTI=3.0 TT=0
*   BV=infinite IBV=1mA
.MODEL DCAP D IS=1e-32 N=50
+CJO=5.40467e-09 VJ=0.4 M=0.9 FC=0.5
D3 0 11 DL
* Default values used in DL:
*   EG=1.11 XTI=3.0 TT=0 CJO=0
*   RS=0 BV=infinite IBV=1mA
.MODEL DL D IS=1e-10 N=0.4
VFI2 12 0 0
FI2 6 7 VFI2 -1
EV 10 0 7 6 1
CAP 10 13 1.19735e-08
RCAP 10 14 1
D4 0 14 DL
VFI1 13 14 0
FI1 6 7 VFI1 -1
.ENDS


.SUBCKT irgph40k 1 2 3
**************************************
*      Model Generated by MODPEX     *
*Copyright(c) Symmetry Design Systems*
*         All Rights Reserved        *
*    UNPUBLISHED LICENSED SOFTWARE   *
*   Contains Proprietary Information *
*      Which is The Property of      *
*     SYMMETRY OR ITS LICENSORS      *
*Commercial Use or Resale Restricted *
*   by Symmetry License Agreement    *
**************************************
*Model generated on Apr 23, 96
* Model format: SPICE3
*Symmetry IGBT Model (Version 1.0)
*External Node Designations
*Node 1 -> C
*Node 2 -> G
*Node 3 -> E
M1 9 6 8 8 MSUB L=100u W=100u
* Default values used in MSUB:
* The voltage-dependent capacitances are
* not included. Other default values are:
*   RD=0 RS=0 LD=0 CBD=0 CBS=0 CGBO=0
.MODEL MSUB NMOS LEVEL=1
+VTO=5.3798 KP=0.01 LAMBDA=0.00275238 CGSO=1.39513e-05
RD 7 9 1.00049e-06
RS 4 8 0.00429738
Q1 4 7 1 QSUB OFF
.MODEL QSUB PNP
+IS=1e-17 BF=541.056 NF=1.41542 VAF=729.512
+IKF=712.954 ISE=1.8058e-15 NE=1.85447 BR=0.999947
+NR=1.00383 VAR=214.961 IKR=1000 ISC=1.00005e-11
+NC=2.00113 RB=0.000104927 IRB=849.612 RBM=9.99997e-06
+RE=1e-08 RC=0.00214542 XTB=0 XTI=3.00433
+EG=1.2 CJC=1.48194e-09 VJC=2.09694 MJC=0.9
+CJE=1.48194e-08 VJE=1.49936 MJE=0.9 TF=6.57568e-11
RDS 7 4 1e8
RER 4 3 0.0005
RG 6 2 2
RL 10 11 1
D2 12 11 DCAP
* Default values used in DCAP:
*   RS=0 EG=1.11 XTI=3.0 TT=0
*   BV=infinite IBV=1mA
.MODEL DCAP D IS=1e-32 N=50
+CJO=5.11646e-10 VJ=0.70587 M=0.9 FC=0.5
D3 0 11 DL
* Default values used in DL:
*   EG=1.11 XTI=3.0 TT=0 CJO=0
*   RS=0 BV=infinite IBV=1mA
.MODEL DL D IS=1e-10 N=0.4
VFI2 12 0 0
FI2 6 7 VFI2 -1
EV 10 0 7 6 1
CAP 10 13 1.73023e-11
RCAP 10 14 1
D4 0 14 DL
VFI1 13 14 0
FI1 6 7 VFI1 -1
.ENDS


.SUBCKT irgph50k 1 2 3
**************************************
*      Model Generated by MODPEX     *
*Copyright(c) Symmetry Design Systems*
*         All Rights Reserved        *
*    UNPUBLISHED LICENSED SOFTWARE   *
*   Contains Proprietary Information *
*      Which is The Property of      *
*     SYMMETRY OR ITS LICENSORS      *
*Commercial Use or Resale Restricted *
*   by Symmetry License Agreement    *
**************************************
*Model generated on Apr 25, 96
* Model format: SPICE3
*Symmetry IGBT Model (Version 1.0)
*External Node Designations
*Node 1 -> C
*Node 2 -> G
*Node 3 -> E
M1 9 6 8 8 MSUB L=100u W=100u
* Default values used in MSUB: