
.MODEL D1N1199C D (
+   IS =  9.96578
+   RS =  0.00643
+   CJO =  4.528e-10
+   VJ =  0.5189
+   TT =  7.237e-07
+   M =  0.4269
+   BV =  60
+   N =  2
+   EG =  1.11
+   XTI =  3
+   KF =  0
+   AF =  1
+   FC =  0.5
+   IBV =  0.003
+   TNOM =  27
)

.MODEL D1N1200C D (
+   IS =  9.94e-06
+   RS =  0.00623
+   CJO =  4.528e-10
+   VJ =  0.5189
+   TT =  7.237e-07
+   M =  0.4269
+   BV =  120
+   N =  2
+   EG =  1.11
+   XTI =  3
+   KF =  0
+   AF =  1
+   FC =  0.5
+   IBV =  0.0025
+   TNOM =  27
)

.MODEL D1N1202C D (
+   IS =  9.94e-06
+   RS =  0.00583
+   CJO =  4.528e-10
+   VJ =  0.5189
+   TT =  7.237e-07
+   M =  0.4269
+   BV =  240
+   N =  2
+   EG =  1.11
+   XTI =  3
+   KF =  0
+   AF =  1
+   FC =  0.5
+   IBV =  0.002
+   TNOM =  27
)

.MODEL D1N1204C D (
+   IS =  9.94e-06
+   RS =  0.00643
+   CJO =  4.528e-10
+   VJ =  0.5189
+   TT =  7.237e-07
+   M =  0.4269
+   BV =  480
+   N =  2
+   EG =  1.11
+   XTI =  3
+   KF =  0
+   AF =  1
+   FC =  0.5
+   IBV =  0.0015
+   TNOM =  27
)

.MODEL D1N1206C D (
+   IS =  9.94e-06
+   RS =  0.00653
+   CJO =  4.528e-10
+   VJ =  0.5189
+   TT =  7.237e-07
+   M =  0.4269
+   BV =  720
+   N =  2
+   EG =  1.11
+   XTI =  3
+   KF =  0
+   AF =  1
+   FC =  0.5
+   IBV =  0.001
+   TNOM =  27
)

.MODEL D1N3208 D (
+   IS =  1.001e-06
+   RS =  0.0011
+   CJO =  1e-12
+   VJ =  0.75
+   TT =  5e-09
+   M =  0.3333
+   BV =  60
+   N =  1
+   EG =  1.11
+   XTI =  3
+   KF =  0
+   AF =  1
+   FC =  0.5
+   IBV =  0.001
+   TNOM =  27
)

.MODEL D1N3491 D (
+   IS =  2.23e-13
+   RS =  0.004197
+   CJO =  1.932e-09
+   VJ =  0.3905
+   TT =  8.656e-06
+   M =  0.7998
+   BV =  60
+   N =  1.08
+   EG =  1.11
+   XTI =  3
+   KF =  0
+   AF =  1
+   FC =  0.5
+   IBV =  0.001
+   TNOM =  27
)

.MODEL D1N3492 D (
+   IS =  2.23e-13
+   RS =  0.004197
+   CJO =  1.931e-09
+   VJ =  0.3909
+   TT =  8.656e-06
+   M =  0.8001
+   BV =  120
+   N =  1.08
+   EG =  1.11
+   XTI =  3
+   KF =  0
+   AF =  1
+   FC =  0.5
+   IBV =  0.001
+   TNOM =  27
)

.MODEL D1N3493 D (
+   IS =  2.23e-13
+   RS =  0.004197
+   CJO =  1.932e-09
+   VJ =  0.3905
+   TT =  8.656e-06
+   M =  0.7999
+   BV =  240
+   N =  1.08
+   EG =  1.11
+   XTI =  3
+   KF =  0
+   AF =  1
+   FC =  0.5
+   IBV =  0.001
+   TNOM =  27
)

.MODEL D1N3494 D (
+   IS =  2.23e-13
+   RS =  0.004197
+   CJO =  1.932e-09
+   VJ =  0.3905
+   TT =  8.656e-06
+   M =  0.7998
+   BV =  360
+   N =  1.08
+   EG =  1.11
+   XTI =  3
+   KF =  0
+   AF =  1
+   FC =  0.5
+   IBV =  0.001
+   TNOM =  27
)

.MODEL D1N3495 D (
+   IS =  2.23e-13
+   RS =  0.004197
+   CJO =  1.932e-09
+   VJ =  0.3905
+   TT =  8.656e-06
+   M =  0.7998
+   BV =  480
+   N =  1.08
+   EG =  1.11
+   XTI =  3
+   KF =  0
+   AF =  1
+   FC =  0.5
+   IBV =  0.001
+   TNOM =  27
)

.MODEL D1N3659 D (
+   IS =  2.009e-13
+   RS =  0.009585
+   CJO =  1e-12
+   VJ =  0.75
+   TT =  5e-09
+   M =  0.3333
+   BV =  60
+   N =  1
+   EG =  1.11
+   XTI =  3
+   KF =  0
+   AF =  1
+   FC =  0.5
+   IBV =  0.005
+   TNOM =  27
)

.MODEL D1N3660 D (
+   IS =  1.015e-13
+   RS =  0.009585
+   CJO =  1e-12
+   VJ =  0.75
+   TT =  5e-09
+   M =  0.3333
+   BV =  120
+   N =  1
+   EG =  1.11
+   XTI =  3
+   KF =  0
+   AF =  1
+   FC =  0.5
+   IBV =  0.0045
+   TNOM =  27
)

.MODEL D1N3661 D (
+   IS =  1.001e-13
+   RS =  0.009586
+   CJO =  1e-12
+   VJ =  0.75
+   TT =  5e-09
+   M =  0.3333
+   BV =  240
+   N =  1
+   EG =  1.11
+   XTI =  3
+   KF =  0
+   AF =  1
+   FC =  0.5
+   IBV =  0.004
+   TNOM =  27
)

.MODEL D1N3662 D (
+   IS =  2.001e-13
+   RS =  0.009586
+   CJO =  1e-12
+   VJ =  0.75
+   TT =  5e-09
+   M =  0.3333
+   BV =  360
+   N =  1
+   EG =  1.11
+   XTI =  3
+   KF =  0
+   AF =  1
+   FC =  0.5
+   IBV =  0.0035
+   TNOM =  27
)

.MODEL D1N3663 D (
+   IS =  2.001e-13
+   RS =  0.009586
+   CJO =  1e-12
+   VJ =  0.75
+   TT =  5e-09
+   M =  0.3333
+   BV =  480
+   N =  1
+   EG =  1.11
+   XTI =  3
+   KF =  0
+   AF =  1
+   FC =  0.5
+   IBV =  0.003
+   TNOM =  27
)

.MODEL D1N3879 D (
+   IS =  1.001e-15
+   RS =  0.0134
+   CJO =  1.132e-10
+   VJ =  0.75
+   TT =  0.001
+   M =  0.2711
+   BV =  60
+   N =  1.14
+   EG =  1.11
+   XTI =  3
+   KF =  0
+   AF =  1
+   FC =  0.5
+   IBV =  1e-05
+   TNOM =  27
)

.MODEL D1N3879A D (
+   IS =  4.364e-09
+   RS =  0.003078
+   CJO =  0.000999
+   VJ =  0.75
+   TT =  0.001
+   M =  0.99
+   BV =  120
+   N =  1.99
+   EG =  1.11
+   XTI =  3
+   KF =  0
+   AF =  1
+   FC =  0.5
+   IBV =  1e-05
+   TNOM =  27
)

.MODEL D1N3880 D (
+   IS =  1e-17
+   RS =  0.0134
+   CJO =  1.132e-10
+   VJ =  0.75
+   TT =  0.001
+   M =  0.2711
+   BV =  120
+   N =  1
+   EG =  1.11
+   XTI =  3
+   KF =  0
+   AF =  1
+   FC =  0.5
+   IBV =  1e-05
+   TNOM =  27
)

.MODEL D1N3880A D (
+   IS =  7.1e-09
+   RS =  0.00284
+   CJO =  5.691e-07
+   VJ =  0.75
+   TT =  0.001
+   M =  0.9
+   BV =  120
+   N =  1.98
+   EG =  1.11
+   XTI =  3
+   KF =  0
+   AF =  1
+   FC =  0.5
+   IBV =  1e-05
+   TNOM =  27
)

.MODEL D1N3881 D (
+   IS =  1e-17
+   RS =  0.0134
+   CJO =  1.132e-10
+   VJ =  0.75
+   TT =  0.001
+   M =  0.2711
+   BV =  240
+   N =  1
+   EG =  1.11
+   XTI =  3
+   KF =  0
+   AF =  1
+   FC =  0.5
+   IBV =  1e-05
+   TNOM =  27
)

.MODEL D1N3881A D (
+   IS =  7.1e-09
+   RS =  0.00274
+   CJO =  5.692e-07
+   VJ =  0.75
+   TT =  0.001
+   M =  0.9
+   BV =  240
+   N =  1.78
+   EG =  1.11
+   XTI =  3
+   KF =  0
+   AF =  1
+   FC =  0.5
+   IBV =  1e-05
+   TNOM =  27
)

.MODEL D1N3882 D (
+   IS =  1e-18
+   RS =  0.0134
+   CJO =  1.132e-10
+   VJ =  0.75
+   TT =  0.001
+   M =  0.2711
+   BV =  360
+   N =  1
+   EG =  1.11
+   XTI =  3
+   KF =  0
+   AF =  1
+   FC =  0.5
+   IBV =  1e-05
+   TNOM =  27
)

.MODEL D1N3882A D (
+   IS =  4.364e-09
+   RS =  0.003078
+   CJO =  5.692e-07
+   VJ =  0.75
+   TT =  0.001
+   M =  0.99
+   BV =  360
+   N =  1.98
+   EG =  1.11
+   XTI =  3
+   KF =  0
+   AF =  1
+   FC =  0.5
+   IBV =  1e-05
+   TNOM =  27
)

.MODEL D1N3883 D (
+   IS =  1e-18
+   RS =  0.0134
+   CJO =  1.132e-10
+   VJ =  0.75
+   TT =  0.001
+   M =  0.2711
+   BV =  480
+   N =  1
+   EG =  1.11
+   XTI =  3
+   KF =  0
+   AF =  1
+   FC =  0.5
+   IBV =  1e-05
+   TNOM =  27
)

.MODEL D1N3883A D (
+   IS =  4e-09
+   RS =  0.003078
+   CJO =  5.692e-07
+   VJ =  0.75
+   TT =  0.001
+   M =  0.9
+   BV =  480
+   N =  1.98
+   EG =  1.11
+   XTI =  3
+   KF =  0
+   AF =  1
+   FC =  0.5
+   IBV =  1e-05
+   TNOM =  27
)

.MODEL D1N3889 D (
+   IS =  1.856e-09
+   RS =  0.009658
+   CJO =  1.132e-10
+   VJ =  0.75
+   TT =  3.699e-07
+   M =  0.2711
+   BV =  60
+   N =  1.62
+   EG =  1.11
+   XTI =  3
+   KF =  0
+   AF =  1
+   FC =  0.5
+   IBV =  1e-05
+   TNOM =  27
)

.MODEL D1N3889A D (
+   IS =  2.0735e-07
+   RS =  0.00328
+   CJO =  1.441e-10
+   VJ =  0.75
+   TT =  0.001
+   M =  0.216
+   BV =  60
+   N =  2
+   EG =  1.11
+   XTI =  3
+   KF =  0
+   AF =  1
+   FC =  0.5
+   IBV =  1e-05
+   TNOM =  27
)

.MODEL D1N3890 D (
+   IS =  1.859e-09
+   RS =  0.009657
+   CJO =  1.132e-10
+   VJ =  0.75
+   TT =  3.699e-07
+   M =  0.2711
+   BV =  120
+   N =  1.67
+   EG =  1.11
+   XTI =  3
+   KF =  0
+   AF =  1
+   FC =  0.5
+   IBV =  1e-05
+   TNOM =  27
)

.MODEL D1N3890A D (
+   IS =  2.073e-09
+   RS =  0.00376
+   CJO =  1.441e-10
+   VJ =  0.75
+   TT =  0.001
+   M =  0.216
+   BV =  120
+   N =  1.6
+   EG =  1.11
+   XTI =  3
+   KF =  0
+   AF =  1
+   FC =  0.5
+   IBV =  1e-05
+   TNOM =  27
)

.MODEL D1N3891 D (
+   IS =  1.856e-09
+   RS =  0.009658
+   CJO =  1.132e-10
+   VJ =  0.75
+   TT =  3.699e-07
+   M =  0.2711
+   BV =  240
+   N =  1.67
+   EG =  1.11
+   XTI =  3
+   KF =  0
+   AF =  1
+   FC =  0.5
+   IBV =  1e-05
+   TNOM =  27
)

.MODEL D1N3891A D (
+   IS =  2.073e-09
+   RS =  0.00366
+   CJO =  1.441e-10
+   VJ =  0.75
+   TT =  0.001
+   M =  0.216
+   BV =  240
+   N =  1.6
+   EG =  1.11
+   XTI =  3
+   KF =  0
+   AF =  1
+   FC =  0.5
+   IBV =  1e-05
+   TNOM =  27
)

.MODEL D1N3892 D (
+   IS =  1.856e-09
+   RS =  0.009658
+   CJO =  1.132e-10
+   VJ =  0.75
+   TT =  3.699e-07
+   M =  0.2711
+   BV =  360
+   N =  1.68
+   EG =  1.11
+   XTI =  3
+   KF =  0
+   AF =  1
+   FC =  0.5
+   IBV =  1e-05
+   TNOM =  27
)

.MODEL D1N3892A D (
+   IS =  2.073e-09
+   RS =  0.00376
+   CJO =  1.441e-10
+   VJ =  0.75
+   TT =  0.001
+   M =  0.216
+   BV =  360
+   N =  1.6
+   EG =  1.11
+   XTI =  3
+   KF =  0
+   AF =  1
+   FC =  0.5
+   IBV =  1e-05
+   TNOM =  27
)

.MODEL D1N3893 D (
+   IS =  1.859e-09
+   RS =  0.009657
+   CJO =  1.132e-10
+   VJ =  0.75
+   TT =  3.699e-07
+   M =  0.2711
+   BV =  480
+   N =  1.68
+   EG =  1.11
+   XTI =  3
+   KF =  0
+   AF =  1
+   FC =  0.5
+   IBV =  1e-05
+   TNOM =  27
)

.MODEL D1N3893A D (
+   IS =  2.073e-09
+   RS =  0.00376
+   CJO =  1.441e-10
+   VJ =  0.75
+   TT =  0.001
+   M =  0.216
+   BV =  480
+   N =  1.6
+   EG =  1.11
+   XTI =  3
+   KF =  0
+   AF =  1
+   FC =  0.5
+   IBV =  1e-05
+   TNOM =  27
)

.MODEL D1N3899 D (
+   IS =  8.401e-10
+   RS =  0.006522
+   CJO =  1.441e-10
+   VJ =  0.75
+   TT =  0.001
+   M =  0.216
+   BV =  60
+   N =  1.525
+   EG =  1.11
+   XTI =  3
+   KF =  0
+   AF =  1
+   FC =  0.5
+   IBV =  1e-05
+   TNOM =  27
)

.MODEL D1N3900 D (
+   IS =  8.4e-10
+   RS =  0.006522
+   CJO =  1.441e-10
+   VJ =  0.75
+   TT =  0.001
+   M =  0.216
+   BV =  120
+   N =  1.525
+   EG =  1.11
+   XTI =  3
+   KF =  0
+   AF =  1
+   FC =  0.5
+   IBV =  1e-05
+   TNOM =  27
)

.MODEL D1N3901 D (
+   IS =  8.4e-10
+   RS =  0.00652
+   CJO =  1.441e-10
+   VJ =  0.75
+   TT =  0.001
+   M =  0.216
+   BV =  240
+   N =  1.49
+   EG =  1.11
+   XTI =  3
+   KF =  0
+   AF =  1
+   FC =  0.5
+   IBV =  1e-05
+   TNOM =  27
)

.MODEL D1N3902 D (
+   IS =  8.4e-10
+   RS =  0.006522
+   CJO =  1.441e-10
+   VJ =  0.75
+   TT =  0.001
+   M =  0.216
+   BV =  360
+   N =  1.525
+   EG =  1.11
+   XTI =  3
+   KF =  0
+   AF =  1
+   FC =  0.5
+   IBV =  1e-05
+   TNOM =  27
)

.MODEL D1N3903 D (
+   IS =  8.4e-10
+   RS =  0.006522
+   CJO =  1.441e-10
+   VJ =  0.75
+   TT =  0.001
+   M =  0.216
+   BV =  480
+   N =  1.49
+   EG =  1.11
+   XTI =  3
+   KF =  0
+   AF =  1
+   FC =  0.5
+   IBV =  1e-05
+   TNOM =  27
)

.MODEL D1N3909 D (
+   IS =  6.233e-10
+   RS =  0.003866
+   CJO =  1.132e-10
+   VJ =  0.75
+   TT =  0.001
+   M =  0.2711
+   BV =  60
+   N =  1.505
+   EG =  1.11
+   XTI =  3
+   KF =  0
+   AF =  1
+   FC =  0.5
+   IBV =  1e-05
+   TNOM =  27
)

.MODEL D1N3910 D (
+   IS =  6.233e-10
+   RS =  0.003866
+   CJO =  1.132e-10
+   VJ =  0.75
+   TT =  0.001
+   M =  0.2711
+   BV =  120
+   N =  1.45
+   EG =  1.11
+   XTI =  3
+   KF =  0
+   AF =  1
+   FC =  0.5
+   IBV =  1e-05
+   TNOM =  27
)

.MODEL D1N3911 D (
+   IS =  6.233e-10
+   RS =  0.003866
+   CJO =  1.132e-10
+   VJ =  0.75
+   TT =  0.001
+   M =  0.2711
+   BV =  240
+   N =  1.505
+   EG =  1.11
+   XTI =  3
+   KF =  0
+   AF =  1
+   FC =  0.5
+   IBV =  1e-05
+   TNOM =  27
)

.MODEL D1N3912 D (
+   IS =  6.233e-10
+   RS =  0.003866
+   CJO =  1.132e-10
+   VJ =  0.75
+   TT =  0.001
+   M =  0.2711
+   BV =  360
+   N =  1.505
+   EG =  1.11
+   XTI =  3
+   KF =  0
+   AF =  1
+   FC =  0.5
+   IBV =  1e-05
+   TNOM =  27
)

.MODEL D1N3913 D (
+   IS =  6.233e-10
+   RS =  0.003866
+   CJO =  1.132e-10
+   VJ =  0.75
+   TT =  0.001
+   M =  0.2711
+   BV =  480
+   N =  1.505
+   EG =  1.11
+   XTI =  3
+   KF =  0
+   AF =  1
+   FC =  0.5
+   IBV =  1e-05
+   TNOM =  27
)

.MODEL D1N4933 D (
+   IS =  2.211e-10
+   RS =  0.03188
+   CJO =  2.879e-11
+   VJ =  0.75
+   TT =  2.164e-07
+   M =  0.43
+   BV =  60
+   N =  1.7
+   EG =  1.11
+   XTI =  3
+   KF =  0
+   AF =  1
+   FC =  0.5
+   IBV =  1e-06
+   TNOM =  27
)

.MODEL D1N4934 D (
+   IS =  2.21e-10
+   RS =  0.03188
+   CJO =  2.879e-11
+   VJ =  0.75
+   TT =  2.164e-07
+   M =  0.43
+   BV =  120
+   N =  1.7
+   EG =  1.11
+   XTI =  3
+   KF =  0
+   AF =  1
+   FC =  0.5
+   IBV =  1e-06
+   TNOM =  27
)

.MODEL D1N4935 D (
+   IS =  2.21e-10
+   RS =  0.03188
+   CJO =  2.879e-11
+   VJ =  0.75
+   TT =  2.164e-07
+   M =  0.43
+   BV =  240
+   N =  1.7
+   EG =  1.11
+   XTI =  3
+   KF =  0
+   AF =  1
+   FC =  0.5
+   IBV =  1e-06
+   TNOM =  27
)

.MODEL D1N4936 D (
+   IS =  2.21e-10
+   RS =  0.03188
+   CJO =  2.879e-11
+   VJ =  0.75
+   TT =  2.164e-07
+   M =  0.43
+   BV =  480
+   N =  1.7
+   EG =  1.11
+   XTI =  3
+   KF =  0
+   AF =  1
+   FC =  0.5
+   IBV =  1e-06
+   TNOM =  27
)

.MODEL D1N4937 D (
+   IS =  2.11e-10
+   RS =  0.03188
+   CJO =  2.879e-11
+   VJ =  0.75
+   TT =  2.164e-07
+   M =  0.43
+   BV =  720
+   N =  1.7
+   EG =  1.11
+   XTI =  3
+   KF =  0
+   AF =  1
+   FC =  0.5
+   IBV =  1e-06
+   TNOM =  27
)

.MODEL D1N5391 D (
+   IS =  1.25e-10
+   RS =  0.0437
+   CJO =  5.264e-11
+   VJ =  0.75
+   TT =  5e-09
+   M =  0.4117
+   BV =  60
+   N =  1.5
+   EG =  1.11
+   XTI =  3
+   KF =  0
+   AF =  1
+   FC =  0.5
+   IBV =  5e-06
+   TNOM =  27
)

.MODEL D1N5392 D (
+   IS =  1.25e-09
+   RS =  0.0427
+   CJO =  5.264e-11
+   VJ =  0.75
+   TT =  5e-09
+   M =  0.4117
+   BV =  120
+   N =  1.8
+   EG =  1.11
+   XTI =  3
+   KF =  0
+   AF =  1
+   FC =  0.5
+   IBV =  5e-06
+   TNOM =  27
)

.MODEL D1N5393 D (
+   IS =  1.25e-09
+   RS =  0.0418
+   CJO =  5.264e-11
+   VJ =  0.75
+   TT =  5e-09
+   M =  0.4117
+   BV =  240
+   N =  1.8
+   EG =  1.11
+   XTI =  3
+   KF =  0
+   AF =  1
+   FC =  0.5
+   IBV =  5e-06
+   TNOM =  27
)

.MODEL D1N5395 D (
+   IS =  1.25e-10
+   RS =  0.03727
+   CJO =  5.264e-11
+   VJ =  0.75
+   TT =  5e-09
+   M =  0.4117
+   BV =  480
+   N =  1.65
+   EG =  1.11
+   XTI =  3
+   KF =  0
+   AF =  1
+   FC =  0.5
+   IBV =  5e-06
+   TNOM =  27
)

.MODEL D1N5397 D (
+   IS =  1.25e-10
+   RS =  0.03827
+   CJO =  5.264e-11
+   VJ =  0.75
+   TT =  5e-09
+   M =  0.4117
+   BV =  720
+   N =  1.62
+   EG =  1.11
+   XTI =  3
+   KF =  0
+   AF =  1
+   FC =  0.5
+   IBV =  5e-06
+   TNOM =  27
)

.MODEL D1N5398 D (
+   IS =  1.25e-10
+   RS =  0.03927
+   CJO =  5.264e-11
+   VJ =  0.75
+   TT =  5e-09
+   M =  0.4117
+   BV =  800
+   N =  1.6
+   EG =  1.11
+   XTI =  3
+   KF =  0
+   AF =  1
+   FC =  0.5
+   IBV =  5e-06
+   TNOM =  27
)

.MODEL D1N5399 D (
+   IS =  1.25e-10
+   RS =  0.03927
+   CJO =  5.264e-11
+   VJ =  0.75
+   TT =  5e-09
+   M =  0.4117
+   BV =  1200
+   N =  1.6
+   EG =  1.11
+   XTI =  3
+   KF =  0
+   AF =  1
+   FC =  0.5
+   IBV =  5e-06
+   TNOM =  27
)

.MODEL D1N5400 D (
+   IS =  5.146e-10
+   RS =  0.008764
+   CJO =  1e-12
+   VJ =  0.75
+   TT =  5e-09
+   M =  0.3333
+   BV =  60
+   N =  1.6
+   EG =  1.11
+   XTI =  3
+   KF =  0
+   AF =  1
+   FC =  0.5
+   IBV =  0.0001
+   TNOM =  27
)

.MODEL D1N5401 D (
+   IS =  5.146e-10
+   RS =  0.008764
+   CJO =  1e-12
+   VJ =  0.75
+   TT =  5e-09
+   M =  0.3333
+   BV =  120
+   N =  1.51
+   EG =  1.11
+   XTI =  3
+   KF =  0
+   AF =  1
+   FC =  0.5
+   IBV =  0.0001
+   TNOM =  27
)

.MODEL D1N5402 D (
+   IS =  5.146e-11
+   RS =  0.00874
+   CJO =  1e-12
+   VJ =  0.75
+   TT =  5e-09
+   M =  0.3333
+   BV =  240
+   N =  1.4
+   EG =  1.11
+   XTI =  3
+   KF =  0
+   AF =  1
+   FC =  0.5
+   IBV =  0.0001
+   TNOM =  27
)

.MODEL D1N5404 D (
+   IS =  5.146e-11
+   RS =  0.008464
+   CJO =  1e-12
+   VJ =  0.75
+   TT =  5e-09
+   M =  0.3333
+   BV =  480
+   N =  1.4
+   EG =  1.11
+   XTI =  3
+   KF =  0
+   AF =  1
+   FC =  0.5
+   IBV =  0.0001
+   TNOM =  27
)

.MODEL D1N5406 D (
+   IS =  9.146e-11
+   RS =  0.00854
+   CJO =  1e-12
+   VJ =  0.75
+   TT =  5e-09
+   M =  0.3333
+   BV =  720
+   N =  1.4
+   EG =  1.11
+   XTI =  3
+   KF =  0
+   AF =  1
+   FC =  0.5
+   IBV =  0.0001
+   TNOM =  27
)

.MODEL D1N5820 D (
+   IS =  0.000193
+   RS =  0.02265
+   CJO =  5.297e-10
+   VJ =  10
+   TT =  5e-09
+   M =  0.7358
+   BV =  24
+   N =  1.6
+   EG =  1.11
+   XTI =  3
+   KF =  0
+   AF =  1
+   FC =  0.5
+   IBV =  0.002
+   TNOM =  27
)

.MODEL D1N5821 D (
+   IS =  0.000194
+   RS =  0.02265
+   CJO =  5.297e-10
+   VJ =  10
+   TT =  5e-09
+   M =  0.7359
+   BV =  36
+   N =  1.5
+   EG =  1.11
+   XTI =  3
+   KF =  0
+   AF =  1
+   FC =  0.5
+   IBV =  0.002
+   TNOM =  27
)

.MODEL D1N5822 D (
+   IS =  0.000193
+   RS =  0.02265
+   CJO =  5.297e-10
+   VJ =  10
+   TT =  5e-09
+   M =  0.7358
+   BV =  48
+   N =  1.5
+   EG =  1.11
+   XTI =  3
+   KF =  0
+   AF =  1
+   FC =  0.5
+   IBV =  0.002
+   TNOM =  27
)

.MODEL D1N5823 D (
+   IS =  0.000654
+   RS =  0.004834
+   CJO =  2.084e-09
+   VJ =  0.4224
+   TT =  5e-09
+   M =  0.4531
+   BV =  24
+   N =  1.32
+   EG =  1.11
+   XTI =  3
+   KF =  0
+   AF =  1
+   FC =  0.5
+   IBV =  0.01
+   TNOM =  27
)

.MODEL D1N5824 D (
+   IS =  0.00064
+   RS =  0.004834
+   CJO =  2.084e-09
+   VJ =  0.4224
+   TT =  5e-09
+   M =  0.4531
+   BV =  36
+   N =  1.3
+   EG =  1.11
+   XTI =  3
+   KF =  0
+   AF =  1
+   FC =  0.5
+   IBV =  0.01
+   TNOM =  27
)

.MODEL D1N5825 D (
+   IS =  0.0007
+   RS =  0.004834
+   CJO =  2.084e-09
+   VJ =  0.4224
+   TT =  5e-09
+   M =  0.4531
+   BV =  48
+   N =  1.2
+   EG =  1.11
+   XTI =  3
+   KF =  0
+   AF =  1
+   FC =  0.5
+   IBV =  0.01
+   TNOM =  27
)

.MODEL D1N5826 D (
+   IS =  0.000161
+   RS =  0.00456
+   CJO =  2.084e-09
+   VJ =  0.4224
+   TT =  5e-09
+   M =  0.4531
+   BV =  24
+   N =  1
+   EG =  1.11
+   XTI =  3
+   KF =  0
+   AF =  1
+   FC =  0.5
+   IBV =  0.01
+   TNOM =  27
)

.MODEL D1N5827 D (
+   IS =  0.000161
+   RS =  0.00456
+   CJO =  2.084e-09
+   VJ =  0.4224
+   TT =  5e-09
+   M =  0.4531
+   BV =  36
+   N =  1
+   EG =  1.11
+   XTI =  3
+   KF =  0
+   AF =  1
+   FC =  0.5
+   IBV =  0.01
+   TNOM =  27
)

.MODEL D1N5828 D (
+   IS =  0.000161
+   RS =  0.004566
+   CJO =  2.084e-09
+   VJ =  0.4224
+   TT =  5e-09
+   M =  0.4531
+   BV =  48
+   N =  1
+   EG =  1.11
+   XTI =  3
+   KF =  0
+   AF =  1
+   FC =  0.5
+   IBV =  0.01
+   TNOM =  27
)

.MODEL D1N5829 D (
+   IS =  9.2e-05
+   RS =  0.004266
+   CJO =  7.474e-09
+   VJ =  0.3909
+   TT =  5e-09
+   M =  0.7003
+   BV =  24
+   N =  1
+   EG =  1.11
+   XTI =  3
+   KF =  0
+   AF =  1
+   FC =  0.5
+   IBV =  0.02
+   TNOM =  27
)

.MODEL D1N5830 D (
+   IS =  9.91e-05
+   RS =  0.004266
+   CJO =  7.475e-09
+   VJ =  0.3905
+   TT =  5e-09
+   M =  0.7
+   BV =  36
+   N =  1
+   EG =  1.11
+   XTI =  3
+   KF =  0
+   AF =  1
+   FC =  0.5
+   IBV =  0.02
+   TNOM =  27
)

.MODEL D1N5831 D (
+   IS =  8.146e-05
+   RS =  0.004266
+   CJO =  7.475e-09
+   VJ =  0.3905
+   TT =  5e-09
+   M =  0.7
+   BV =  48
+   N =  1
+   EG =  1.11
+   XTI =  3
+   KF =  0
+   AF =  1
+   FC =  0.5
+   IBV =  0.02
+   TNOM =  27
)

.MODEL D1N5832 D (
+   IS =  9e-05
+   RS =  0.004266
+   CJO =  7.475e-09
+   VJ =  0.391
+   TT =  5e-09
+   M =  0.7
+   BV =  24
+   N =  1
+   EG =  1.11
+   XTI =  3
+   KF =  0
+   AF =  1
+   FC =  0.5
+   IBV =  0.02
+   TNOM =  27
)

.MODEL D1N5833 D (
+   IS =  9.85e-05
+   RS =  0.004266
+   CJO =  7.475e-09
+   VJ =  0.3905
+   TT =  5e-09
+   M =  0.7
+   BV =  36
+   N =  1
+   EG =  1.11
+   XTI =  3
+   KF =  0
+   AF =  1
+   FC =  0.5
+   IBV =  0.02
+   TNOM =  27
)

.MODEL D1N5834 D (
+   IS =  7.145e-05
+   RS =  0.00416
+   CJO =  7.475e-09
+   VJ =  0.3905
+   TT =  5e-09
+   M =  0.7
+   BV =  48
+   N =  1
+   EG =  1.11
+   XTI =  3
+   KF =  0
+   AF =  1
+   FC =  0.5
+   IBV =  0.02
+   TNOM =  27
)

.MODEL D1N6095 D (
+   IS =  0.0001513
+   RS =  0.00345
+   CJO =  2.64e-09
+   VJ =  0.3905
+   TT =  5e-09
+   M =  0.4924
+   BV =  36
+   N =  1.61
+   EG =  1.11
+   XTI =  3
+   KF =  0
+   AF =  1
+   FC =  0.5
+   IBV =  0.05
+   TNOM =  27
)

.MODEL D1N6096 D (
+   IS =  0.0001513
+   RS =  0.00341
+   CJO =  2.64e-09
+   VJ =  0.3905
+   TT =  5e-09
+   M =  0.4924
+   BV =  48
+   N =  1.61
+   EG =  1.11
+   XTI =  3
+   KF =  0
+   AF =  1
+   FC =  0.5
+   IBV =  0.005
+   TNOM =  27
)

.MODEL D1N6097 D (
+   IS =  0.0001513
+   RS =  0.003065
+   CJO =  4.294e-09
+   VJ =  0.4187
+   TT =  5e-09
+   M =  0.4108
+   BV =  36
+   N =  1.61
+   EG =  1.11
+   XTI =  3
+   KF =  0
+   AF =  1
+   FC =  0.5
+   IBV =  0.01
+   TNOM =  27
)

.MODEL D1N6098 D (
+   IS =  0.0001513
+   RS =  0.003065
+   CJO =  4.294e-09
+   VJ =  0.4187
+   TT =  5e-09
+   M =  0.4108
+   BV =  48
+   N =  1.61
+   EG =  1.11
+   XTI =  3
+   KF =  0
+   AF =  1
+   FC =  0.5
+   IBV =  0.01
+   TNOM =  27
)

.MODEL D3N246 D (
+   IS =  1e-20
+   RS =  0.03767
+   CJO =  1e-12
+   VJ =  0.75
+   TT =  5e-09
+   M =  0.3333
+   BV =  60
+   N =  0.9892
+   EG =  1.11
+   XTI =  3
+   KF =  0
+   AF =  1
+   FC =  0.5
+   IBV =  1e-05
+   TNOM =  27
)

.MODEL D3N247 D (
+   IS =  1.001e-20
+   RS =  0.03767
+   CJO =  1e-12
+   VJ =  0.75
+   TT =  5e-09
+   M =  0.3333
+   BV =  120
+   N =  0.9892
+   EG =  1.11
+   XTI =  3
+   KF =  0
+   AF =  1
+   FC =  0.5
+   IBV =  1e-05
+   TNOM =  27
)

.MODEL D3N248 D (
+   IS =  1.001e-20
+   RS =  0.03767
+   CJO =  1e-12
+   VJ =  0.75
+   TT =  5e-09
+   M =  0.3333
+   BV =  240
+   N =  0.9892
+   EG =  1.11
+   XTI =  3
+   KF =  0
+   AF =  1
+   FC =  0.5
+   IBV =  1e-05
+   TNOM =  27
)

.MODEL D3N249 D (
+   IS =  1.001e-20
+   RS =  0.03767
+   CJO =  1e-12
+   VJ =  0.75
+   TT =  5e-09
+   M =  0.3333
+   BV =  480
+   N =  0.9892
+   EG =  1.11
+   XTI =  3
+   KF =  0
+   AF =  1
+   FC =  0.5
+   IBV =  1e-05
+   TNOM =  27
)

.MODEL D3N250 D (
+   IS =  1.001e-20
+   RS =  0.03767
+   CJO =  1e-12
+   VJ =  0.75
+   TT =  5e-09
+   M =  0.3333
+   BV =  720
+   N =  0.9892
+   EG =  1.11
+   XTI =  3
+   KF =  0
+   AF =  1
+   FC =  0.5
+   IBV =  1e-05
+   TNOM =  27
)

.MODEL D3N251 D (
+   IS =  1.001e-20
+   RS =  0.03767
+   CJO =  1e-12
+   VJ =  0.75
+   TT =  5e-09
+   M =  0.3333
+   BV =  960
+   N =  0.9892
+   EG =  1.11
+   XTI =  3
+   KF =  0
+   AF =  1
+   FC =  0.5
+   IBV =  1e-05
+   TNOM =  27
)

.MODEL D3N252 D (
+   IS =  1.001e-20
+   RS =  0.03767
+   CJO =  1e-12
+   VJ =  0.75
+   TT =  5e-09
+   M =  0.3333
+   BV =  1200
+   N =  0.9892
+   EG =  1.11
+   XTI =  3
+   KF =  0
+   AF =  1
+   FC =  0.5
+   IBV =  1e-05
+   TNOM =  27
)

.MODEL D3N253 D (
+   IS =  3.271e-08
+   RS =  0.02135
+   CJO =  1e-12
+   VJ =  0.75
+   TT =  5e-09
+   M =  0.3333
+   BV =  60
+   N =  2.118
+   EG =  1.11
+   XTI =  3
+   KF =  0
+   AF =  1
+   FC =  0.5
+   IBV =  1e-05
+   TNOM =  27
)

.MODEL D3N254 D (
+   IS =  3.282e-08
+   RS =  0.02139
+   CJO =  1e-12
+   VJ =  0.75
+   TT =  5e-09
+   M =  0.3333
+   BV =  120
+   N =  2.117
+   EG =  1.11
+   XTI =  3
+   KF =  0
+   AF =  1
+   FC =  0.5
+   IBV =  1e-05
+   TNOM =  27
)

.MODEL D3N255 D (
+   IS =  3.271e-08
+   RS =  0.02135
+   CJO =  1e-12
+   VJ =  0.75
+   TT =  5e-09
+   M =  0.3333
+   BV =  240
+   N =  2.118
+   EG =  1.11
+   XTI =  3
+   KF =  0
+   AF =  1
+   FC =  0.5
+   IBV =  1e-05
+   TNOM =  27
)

.MODEL D3N256 D (
+   IS =  3.271e-08
+   RS =  0.02135
+   CJO =  1e-12
+   VJ =  0.75
+   TT =  5e-09
+   M =  0.3333
+   BV =  480
+   N =  2.118
+   EG =  1.11
+   XTI =  3
+   KF =  0
+   AF =  1
+   FC =  0.5
+   IBV =  1e-05
+   TNOM =  27
)

.MODEL D3N257 D (
+   IS =  3.271e-08
+   RS =  0.02135
+   CJO =  1e-12
+   VJ =  0.75
+   TT =  5e-09
+   M =  0.3333
+   BV =  720
+   N =  2.118
+   EG =  1.11
+   XTI =  3
+   KF =  0
+   AF =  1
+   FC =  0.5
+   IBV =  1e-05
+   TNOM =  27
)

.MODEL D3N258 D (
+   IS =  3.271e-08
+   RS =  0.02135
+   CJO =  1e-12
+   VJ =  0.75
+   TT =  5e-09
+   M =  0.3333
+   BV =  960
+   N =  2.118
+   EG =  1.11
+   XTI =  3
+   KF =  0
+   AF =  1
+   FC =  0.5
+   IBV =  1e-05
+   TNOM =  27
)

.MODEL D3N259 D (
+   IS =  3.271e-08
+   RS =  0.02135
+   CJO =  1e-12
+   VJ =  0.75
+   TT =  5e-09
+   M =  0.3333
+   BV =  1200
+   N =  2.118
+   EG =  1.11
+   XTI =  3
+   KF =  0
+   AF =  1
+   FC =  0.5
+   IBV =  1e-05
+   TNOM =  27
)

.MODEL MBR030 D (
+   IS =  1.105e-05
+   RS =  0.0984
+   CJO =  8.994e-11
+   VJ =  0.4387
+   TT =  5e-09
+   M =  0.1
+   BV =  36
+   N =  2
+   EG =  1.11
+   XTI =  3
+   KF =  0
+   AF =  1
+   FC =  0.5
+   IBV =  0.0006
+   TNOM =  27
)

.MODEL MBR040 D (
+   IS =  0.0005
+   RS =  0.22
+   CJO =  8.994e-11
+   VJ =  0.4387
+   TT =  5e-09
+   M =  0.1
+   BV =  48
+   N =  1.3
+   EG =  1.11
+   XTI =  3
+   KF =  0
+   AF =  1
+   FC =  0.5
+   IBV =  0.0006
+   TNOM =  27
)

.MODEL MBR1035 D (
+   IS =  7.417e-06
+   RS =  0.018
+   CJO =  1.053e-09
+   VJ =  0.3905
+   TT =  5e-09
+   M =  0.438
+   BV =  42
+   N =  1.19
+   EG =  1.11
+   XTI =  3
+   KF =  0
+   AF =  1
+   FC =  0.5
+   IBV =  0.0001
+   TNOM =  27
)

.MODEL MBR1045 D (
+   IS =  7.417e-06
+   RS =  0.018172
+   CJO =  1.053e-09
+   VJ =  0.3905
+   TT =  5e-09
+   M =  0.438
+   BV =  54
+   N =  1.22
+   EG =  1.11
+   XTI =  3
+   KF =  0
+   AF =  1
+   FC =  0.5
+   IBV =  0.0001
+   TNOM =  27
)

.MODEL MBR12035CT D (
+   IS =  8.5e-05
+   RS =  0.00193
+   CJO =  4.702e-09
+   VJ =  0.3905
+   TT =  5e-09
+   M =  0.4684
+   BV =  42
+   N =  1.6
+   EG =  1.11
+   XTI =  3
+   KF =  0
+   AF =  1
+   FC =  0.5
+   IBV =  0.0001
+   TNOM =  27
)

.MODEL MBR12045CT D (
+   IS =  5.8e-05
+   RS =  0.002069
+   CJO =  4.702e-09
+   VJ =  0.3905
+   TT =  5e-09
+   M =  0.4683
+   BV =  54
+   N =  1.55
+   EG =  1.11
+   XTI =  3
+   KF =  0
+   AF =  1
+   FC =  0.5
+   IBV =  0.0001
+   TNOM =  27
)

.MODEL MBR1520 D (
+   IS =  2.715e-05
+   RS =  0.004946
+   CJO =  2.084e-09
+   VJ =  0.4224
+   TT =  5e-09
+   M =  0.4531
+   BV =  24
+   N =  1.255
+   EG =  1.11
+   XTI =  3
+   KF =  0
+   AF =  1
+   FC =  0.5
+   IBV =  0.001
+   TNOM =  27
)

.MODEL MBR1530 D (
+   IS =  2.715e-05
+   RS =  0.004946
+   CJO =  2.084e-09
+   VJ =  0.4224
+   TT =  5e-09
+   M =  0.4531
+   BV =  36
+   N =  1.255
+   EG =  1.11
+   XTI =  3
+   KF =  0
+   AF =  1
+   FC =  0.5
+   IBV =  0.001
+   TNOM =  27
)

.MODEL MBR1535CT D (
+   IS =  0.0005536
+   RS =  0.02112
+   CJO =  1e-12
+   VJ =  0.75
+   TT =  5e-09
+   M =  0.3333
+   BV =  42
+   N =  1.928
+   EG =  1.11
+   XTI =  3
+   KF =  0
+   AF =  1
+   FC =  0.5
+   IBV =  0.0001
+   TNOM =  27
)

.MODEL MBR1540 D (
+   IS =  2.715e-05
+   RS =  0.004946
+   CJO =  2.084e-09
+   VJ =  0.4224
+   TT =  5e-09
+   M =  0.4531
+   BV =  48
+   N =  1.255
+   EG =  1.11
+   XTI =  3
+   KF =  0
+   AF =  1
+   FC =  0.5
+   IBV =  0.0001
+   TNOM =  27
)

.MODEL MBR1635 D (
+   IS =  1.8e-05
+   RS =  0.00669
+   CJO =  1e-12
+   VJ =  0.75
+   TT =  5e-09
+   M =  0.3333
+   BV =  42
+   N =  1.6
+   EG =  1.11
+   XTI =  3
+   KF =  0
+   AF =  1
+   FC =  0.5
+   IBV =  0.0002
+   TNOM =  27
)

.MODEL MBR1645 D (
+   IS =  0.00123
+   RS =  0.00997
+   CJO =  1e-12
+   VJ =  0.75
+   TT =  5e-09
+   M =  0.3333
+   BV =  54
+   N =  1.8
+   EG =  1.11
+   XTI =  3
+   KF =  0
+   AF =  1
+   FC =  0.5
+   IBV =  0.0005
+   TNOM =  27
)

.MODEL MBR20035CT D (
+   IS =  0.01975
+   RS =  0.000835
+   CJO =  1.426e-08
+   VJ =  0.3905
+   TT =  5e-09
+   M =  0.5696
+   BV =  42
+   N =  2
+   EG =  1.11
+   XTI =  3
+   KF =  0
+   AF =  1
+   FC =  0.5
+   IBV =  0.0005
+   TNOM =  27
)

.MODEL MBR20045CT D (
+   IS =  0.01975
+   RS =  0.000825
+   CJO =  1.426e-08
+   VJ =  0.3905
+   TT =  5e-09
+   M =  0.5696
+   BV =  54
+   N =  2
+   EG =  1.11
+   XTI =  3
+   KF =  0
+   AF =  1
+   FC =  0.5
+   IBV =  0.0005
+   TNOM =  27
)

.MODEL MBR2035CT D (
+   IS =  7.417e-06
+   RS =  0.01872
+   CJO =  1.053e-09
+   VJ =  0.3905
+   TT =  5e-09
+   M =  0.438
+   BV =  42
+   N =  1.12
+   EG =  1.11
+   XTI =  3
+   KF =  0
+   AF =  1
+   FC =  0.5
+   IBV =  0.0001
+   TNOM =  27
)

.MODEL MBR2045CT D (
+   IS =  7.417e-06
+   RS =  0.01872
+   CJO =  1.053e-09
+   VJ =  0.3905
+   TT =  5e-09
+   M =  0.438
+   BV =  54
+   N =  1.12
+   EG =  1.11
+   XTI =  3
+   KF =  0
+   AF =  1
+   FC =  0.5
+   IBV =  0.0001
+   TNOM =  27
)

.MODEL MBR2520 D (
+   IS =  6.687e-05
+   RS =  0.005131
+   CJO =  7.475e-09
+   VJ =  0.3905
+   TT =  5e-09
+   M =  0.7
+   BV =  24
+   N =  1.106
+   EG =  1.11
+   XTI =  3
+   KF =  0
+   AF =  1
+   FC =  0.5
+   IBV =  0.002
+   TNOM =  27
)

.MODEL MBR2530 D (
+   IS =  6.687e-05
+   RS =  0.005131
+   CJO =  7.475e-09
+   VJ =  0.3905
+   TT =  5e-09
+   M =  0.7
+   BV =  36
+   N =  1.106
+   EG =  1.11
+   XTI =  3
+   KF =  0
+   AF =  1
+   FC =  0.5
+   IBV =  0.002
+   TNOM =  27
)

.MODEL MBR2535CT D (
+   IS =  0.000893
+   RS =  0.00993
+   CJO =  1e-12
+   VJ =  0.75
+   TT =  5e-09
+   M =  0.3333
+   BV =  42
+   N =  1.82
+   EG =  1.11
+   XTI =  3
+   KF =  0
+   AF =  1
+   FC =  0.5
+   IBV =  0.0002
+   TNOM =  27
)

.MODEL MBR2540 D (
+   IS =  6.687e-05
+   RS =  0.005131
+   CJO =  7.475e-09
+   VJ =  0.3905
+   TT =  5e-09
+   M =  0.7
+   BV =  54
+   N =  1.106
+   EG =  1.11
+   XTI =  3
+   KF =  0
+   AF =  1
+   FC =  0.5
+   IBV =  0.0002
+   TNOM =  27
)

.MODEL MBR30035CT D (
+   IS =  0.001184
+   RS =  0.0002201
+   CJO =  1.954e-08
+   VJ =  0.3905
+   TT =  5e-09
+   M =  0.6013
+   BV =  42
+   N =  1.97
+   EG =  1.11
+   XTI =  3
+   KF =  0
+   AF =  1
+   FC =  0.5
+   IBV =  0.0008
+   TNOM =  27
)

.MODEL MBR30045CT D (
+   IS =  0.001184
+   RS =  0.0002201
+   CJO =  1.954e-08
+   VJ =  0.3905
+   TT =  5e-09
+   M =  0.6014
+   BV =  54
+   N =  1.97
+   EG =  1.11
+   XTI =  3
+   KF =  0
+   AF =  1
+   FC =  0.5
+   IBV =  0.0008
+   TNOM =  27
)

.MODEL MBR3020CT D (
+   IS =  3.106e-06
+   RS =  0.00766
+   CJO =  2.64e-09
+   VJ =  0.3905
+   TT =  5e-09
+   M =  0.4924
+   BV =  24
+   N =  1.027
+   EG =  1.11
+   XTI =  3
+   KF =  0