* COPYRIGHT OF NATIONAL SEMICONDUCTOR
*
.model 1N3064  D(Is=0.1p Rs=4 CJO=1p Tt=8n Bv=100 Ibv=0.1p)
*               85-??-??        Original library

.model 1N4009  D(Is=0.1p Rs=4 CJO=2p Tt=3n Bv=60 Ibv=0.1p)
*               85-??-??        Original library

.model 1N4148  D(Is=0.1p Rs=16 CJO=2p Tt=12n Bv=100 Ibv=0.1p)
*               85-??-??        Original library

.model 1N4149  D(Is=0.1p Rs=8 CJO=1p Tt=12n Bv=100 Ibv=0.1p)
*               85-??-??        Original library

.model 1N4150  D(Is=10E-15 Rs=1.0 CJO=1.3p Tt=12n Bv=70 Ibv=0.1p)
*               85-??-??        Original library

.model 1N4151  D(Is=0.1p Rs=3 CJO=1p Tt=3n Bv=100 Ibv=0.1p)
*               85-??-??        Original library

.model 1N4152  D(Is=0.1p Rs=6 CJO=1p Tt=3n Bv=70 Ibv=0.1p)
*               85-??-??        Original library

.model 1N4153  D(Is=0.1p Rs=6 CJO=1p Tt=3n Bv=100 Ibv=0.1p)
*               85-??-??        Original library

.model 1N4154  D(Is=0.1p Rs=4 CJO=2p Tt=3n Bv=60 Ibv=0.1p)
*               85-??-??        Original library

.model 1N4305  D(Is=0.1p Rs=4 CJO=1p Tt=8n Bv=100 Ibv=0.1p)
*               85-??-??        Original library

.model 1N4446  D(Is=0.1p Rs=4 CJO=2p Tt=12n Bv=100 Ibv=0.1p)
*               85-??-??        Original library

.model 1N4447  D(Is=0.1p Rs=4 CJO=1p Tt=12n Bv=100 Ibv=0.1p)
*               85-??-??        Original library

.model 1N4448  D(Is=0.1p Rs=2 CJO=2p Tt=12n Bv=100 Ibv=0.1p)
*               85-??-??        Original library

.model 1N4449  D(Is=0.1p Rs=4 CJO=1p Tt=12n Bv=100 Ibv=0.1p)
*               85-??-??        Original library

.model 1N4454  D(Is=0.1p Rs=4 CJO=1p Tt=8n Bv=100 Ibv=0.1p)
*               85-??-??        Original library

.model 1N4938  D(Is=0.1p Rs=2 CJO=2.5p Tt=35n Bv=300 Ibv=0.1p)
*               85-??-??        Original library

.model 1N914   D(Is=0.1p Rs=16 CJO=2p Tt=12n Bv=100 Ibv=0.1p)
*               85-??-??        Original library

.model 1N914A  D(Is=0.1p Rs=4 CJO=2p Tt=12n Bv=100 Ibv=0.1p)
*               85-??-??        Original library

.model 1N914B  D(Is=0.1p Rs=2 CJO=2p Tt=12n Bv=100 Ibv=0.1p)
*               85-??-??        Original library

.model 1N916   D(Is=0.1p Rs=8 CJO=1p Tt=12n Bv=100 Ibv=0.1p)
*               85-??-??        Original library

.model 1N916A  D(Is=0.1p Rs=4 CJO=1p Tt=12n Bv=100 Ibv=0.1p)
*               85-??-??        Original library

.model 1N916B  D(Is=0.1p Rs=4 CJO=1p Tt=12n Bv=100 Ibv=0.1p)
*               85-??-??        Original library

.ends


