***********************************************
*ELECTRONICS WORKBENCH MODEL FILE             * 
*MODELS GENERATED BY: S.IRELAND/S.MOORE       *
*(c) 1996 INTERACTIVE IMAGE TECHNOLOGIES LTD. * 
*TORONTO, ONTARIO (416)977-5550.              *
***********************************************
.MODEL BZD23-C10 D (
+   IS =  2.154e-10
+   RS =  0.27
+   CJO =  1e-12
+   VJ =  0.75
+   TT =  5e-09
+   M =  0.3333
+   BV =  10.0
+   IBV =  0.05
+   N =  1.11
+   EG = 1.11
+   XTI =  3
+   KF = 0
+   AF= 1
+   FC =  0.2586
+   TNOM =  27
)

.MODEL BZD23-C100 D (
+   IS =  2.154e-10
+   RS =  0.27
+   CJO =  1e-12
+   VJ =  0.75
+   TT =  5e-09
+   M =  0.3333
+   BV =  100.
+   IBV =  0.005
+   N =  1.11
+   EG = 1.11
+   XTI =  3
+   KF = 0
+   AF= 1
+   FC =  0.08621
+   TNOM =  27
)

.MODEL BZD23-C11 D (
+   IS =  2.154e-10
+   RS =  0.27
+   CJO =  1e-12
+   VJ =  0.75
+   TT =  5e-09
+   M =  0.3333
+   BV =  11.0
+   IBV =  0.05
+   N =  1.11
+   EG = 1.11
+   XTI =  3
+   KF = 0
+   AF= 1
+   FC =  0.1293
+   TNOM =  27
)

.MODEL BZD23-C110 D (
+   IS =  2.154e-10
+   RS =  0.27
+   CJO =  1e-12
+   VJ =  0.75
+   TT =  5e-09
+   M =  0.3333
+   BV =  110.
+   IBV =  0.005
+   N =  1.11
+   EG = 1.11
+   XTI =  3
+   KF = 0
+   AF= 1
+   FC =  0.06466
+   TNOM =  27
)

.MODEL BZD23-C12 D (
+   IS =  2.154e-10
+   RS =  0.27
+   CJO =  1e-12
+   VJ =  0.75
+   TT =  5e-09
+   M =  0.3333
+   BV =  12.0
+   IBV =  0.05
+   N =  1.11
+   EG = 1.11
+   XTI =  3
+   KF = 0
+   AF= 1
+   FC =  0.1293
+   TNOM =  27
)

.MODEL BZD23-C120 D (
+   IS =  2.154e-10
+   RS =  0.27
+   CJO =  1e-12
+   VJ =  0.75
+   TT =  5e-09
+   M =  0.3333
+   BV =  120.
+   IBV =  0.005
+   N =  1.11
+   EG = 1.11
+   XTI =  3
+   KF = 0
+   AF= 1
+   FC =  0.06466
+   TNOM =  27
)

.MODEL BZD23-C13 D (
+   IS =  2.154e-10
+   RS =  0.27
+   CJO =  1e-12
+   VJ =  0.75
+   TT =  5e-09
+   M =  0.3333
+   BV =  13.0
+   IBV =  0.05
+   N =  1.11
+   EG = 1.11
+   XTI =  3
+   KF = 0
+   AF= 1
+   FC =  0.1035
+   TNOM =  27
)

.MODEL BZD23-C130 D (
+   IS =  2.154e-10
+   RS =  0.27
+   CJO =  1e-12
+   VJ =  0.75
+   TT =  5e-09
+   M =  0.3333
+   BV =  130.
+   IBV =  0.005
+   N =  1.11
+   EG = 1.11
+   XTI =  3
+   KF = 0
+   AF= 1
+   FC =  0.04703
+   TNOM =  27
)

.MODEL BZD23-C15 D (
+   IS =  2.154e-10
+   RS =  0.27
+   CJO =  1e-12
+   VJ =  0.75
+   TT =  5e-09
+   M =  0.3333
+   BV =  15.0
+   IBV =  0.05
+   N =  1.11
+   EG = 1.11
+   XTI =  3
+   KF = 0
+   AF= 1
+   FC =  0.1035
+   TNOM =  27
)

.MODEL BZD23-C150 D (
+   IS =  2.154e-10
+   RS =  0.27
+   CJO =  1e-12
+   VJ =  0.75
+   TT =  5e-09
+   M =  0.3333
+   BV =  150.
+   IBV =  0.005
+   N =  1.11
+   EG = 1.11
+   XTI =  3
+   KF = 0
+   AF= 1
+   FC =  0.03979
+   TNOM =  27
)

.MODEL BZD23-C16 D (
+   IS =  2.154e-10
+   RS =  0.27
+   CJO =  1e-12
+   VJ =  0.75
+   TT =  5e-09
+   M =  0.3333
+   BV =  16.0
+   IBV =  0.025
+   N =  1.11
+   EG = 1.11
+   XTI =  3
+   KF = 0
+   AF= 1
+   FC =  0.1724
+   TNOM =  27
)

.MODEL BZD23-C160 D (
+   IS =  2.154e-10
+   RS =  0.27
+   CJO =  1e-12
+   VJ =  0.75
+   TT =  5e-09
+   M =  0.3333
+   BV =  160
+   IBV =  0.005
+   N =  1.11
+   EG = 1.11
+   XTI =  3
+   KF = 0
+   AF= 1
+   FC =  0.03449
+   TNOM =  27
)

.MODEL BZD23-C18 D (
+   IS =  2.154e-10
+   RS =  0.27
+   CJO =  1e-12
+   VJ =  0.75
+   TT =  5e-09
+   M =  0.3333
+   BV =  18.0
+   IBV =  0.025
+   N =  1.11
+   EG = 1.11
+   XTI =  3
+   KF = 0
+   AF= 1
+   FC =  0.1724
+   TNOM =  27
)

.MODEL BZD23-C180 D (
+   IS =  2.154e-10
+   RS =  0.27
+   CJO =  1e-12
+   VJ =  0.75
+   TT =  5e-09
+   M =  0.3333
+   BV =  180
+   IBV =  0.005
+   N =  1.11
+   EG = 1.11
+   XTI =  3
+   KF = 0
+   AF= 1
+   FC =  0.02874
+   TNOM =  27
)

.MODEL BZD23-C20 D (
+   IS =  2.154e-10
+   RS =  0.27
+   CJO =  1e-12
+   VJ =  0.75
+   TT =  5e-09
+   M =  0.3333
+   BV =  20.0
+   IBV =  0.025
+   N =  1.11
+   EG = 1.11
+   XTI =  3
+   KF = 0
+   AF= 1
+   FC =  0.1724
+   TNOM =  27
)

.MODEL BZD23-C200 D (
+   IS =  2.154e-10
+   RS =  0.27
+   CJO =  1e-12
+   VJ =  0.75
+   TT =  5e-09
+   M =  0.3333
+   BV =  200
+   IBV =  0.005
+   N =  1.11
+   EG = 1.11
+   XTI =  3
+   KF = 0
+   AF= 1
+   FC =  0.02586
+   TNOM =  27
)

.MODEL BZD23-C22 D (
+   IS =  2.154e-10
+   RS =  0.27
+   CJO =  1e-12
+   VJ =  0.75
+   TT =  5e-09
+   M =  0.3333
+   BV =  22.0
+   IBV =  0.025
+   N =  1.11
+   EG = 1.11
+   XTI =  3
+   KF = 0
+   AF= 1
+   FC =  0.1724
+   TNOM =  27
)

.MODEL BZD23-C220 D (
+   IS =  2.154e-10
+   RS =  0.27
+   CJO =  1e-12
+   VJ =  0.75
+   TT =  5e-09
+   M =  0.3333
+   BV =  220.
+   IBV =  0.002
+   N =  1.11
+   EG = 1.11
+   XTI =  3
+   KF = 0
+   AF= 1
+   FC =  0.03695
+   TNOM =  27
)

.MODEL BZD23-C24 D (
+   IS =  2.154e-10
+   RS =  0.27
+   CJO =  1e-12
+   VJ =  0.75
+   TT =  5e-09
+   M =  0.3333
+   BV =  24.0
+   IBV =  0.025
+   N =  1.11
+   EG = 1.11
+   XTI =  3
+   KF = 0
+   AF= 1
+   FC =  0.1478
+   TNOM =  27
)

.MODEL BZD23-C240 D (
+   IS =  2.154e-10
+   RS =  0.27
+   CJO =  1e-12
+   VJ =  0.75
+   TT =  5e-09
+   M =  0.3333
+   BV =  240.
+   IBV =  0.002
+   N =  1.11
+   EG = 1.11
+   XTI =  3
+   KF = 0
+   AF= 1
+   FC =  0.03233
+   TNOM =  27
)

.MODEL BZD23-C27 D (
+   IS =  2.154e-10
+   RS =  0.27
+   CJO =  1e-12
+   VJ =  0.75
+   TT =  5e-09
+   M =  0.3333
+   BV =  27.0
+   IBV =  0.025
+   N =  1.11
+   EG = 1.11
+   XTI =  3
+   KF = 0
+   AF= 1
+   FC =  0.1478
+   TNOM =  27
)

.MODEL BZD23-C270 D (
+   IS =  2.154e-10
+   RS =  0.27
+   CJO =  1e-12
+   VJ =  0.75
+   TT =  5e-09
+   M =  0.3333
+   BV =  270.
+   IBV =  0.002
+   N =  1.11
+   EG = 1.11
+   XTI =  3
+   KF = 0
+   AF= 1
+   FC =  0.02874
+   TNOM =  27
)

.MODEL BZD23-C30 D (
+   IS =  2.154e-10
+   RS =  0.27
+   CJO =  1e-12
+   VJ =  0.75
+   TT =  5e-09
+   M =  0.3333
+   BV =  30.0
+   IBV =  0.025
+   N =  1.11
+   EG = 1.11
+   XTI =  3
+   KF = 0
+   AF= 1
+   FC =  0.1293
+   TNOM =  27
)

.MODEL BZD23-C33 D (
+   IS =  2.154e-10
+   RS =  0.27
+   CJO =  1e-12
+   VJ =  0.75
+   TT =  5e-09
+   M =  0.3333
+   BV =  33.0
+   IBV =  0.025
+   N =  1.11
+   EG = 1.11
+   XTI =  3
+   KF = 0
+   AF= 1
+   FC =  0.1293
+   TNOM =  27
)

.MODEL BZD23-C36 D (
+   IS =  2.154e-10
+   RS =  0.27
+   CJO =  1e-12
+   VJ =  0.75
+   TT =  5e-09
+   M =  0.3333
+   BV =  36.0
+   IBV =  0.01
+   N =  1.11
+   EG = 1.11
+   XTI =  3
+   KF = 0
+   AF= 1
+   FC =  0.1232
+   TNOM =  27
)

.MODEL BZD23-C39 D (
+   IS =  2.154e-10
+   RS =  0.27
+   CJO =  1e-12
+   VJ =  0.75
+   TT =  5e-09
+   M =  0.3333
+   BV =  39.0
+   IBV =  0.01
+   N =  1.11
+   EG = 1.11
+   XTI =  3
+   KF = 0
+   AF= 1
+   FC =  0.1232
+   TNOM =  27
)

.MODEL BZD23-C43 D (
+   IS =  2.154e-10
+   RS =  0.27
+   CJO =  1e-12
+   VJ =  0.75
+   TT =  5e-09
+   M =  0.3333
+   BV =  43.0
+   IBV =  0.01
+   N =  1.11
+   EG = 1.11
+   XTI =  3
+   KF = 0
+   AF= 1
+   FC =  0.1078
+   TNOM =  27
)

.MODEL BZD23-C47 D (
+   IS =  2.154e-10
+   RS =  0.27
+   CJO =  1e-12
+   VJ =  0.75
+   TT =  5e-09
+   M =  0.3333
+   BV =  47.0
+   IBV = 0.01
+   N =  1.11
+   EG = 1.11
+   XTI =  3
+   KF = 0
+   AF= 1
+   FC =  0.1078
+   TNOM =  27
)

.MODEL BZD23-C51 D (
+   IS =  2.154e-10
+   RS =  0.27
+   CJO =  1e-12
+   VJ =  0.75
+   TT =  5e-09
+   M =  0.3333
+   BV =  51.0
+   IBV =  0.01
+   N =  1.11
+   EG = 1.11
+   XTI =  3
+   KF = 0
+   AF= 1
+   FC =  0.1035
+   TNOM =  27
)

.MODEL BZD23-C56 D (
+   IS =  2.154e-10
+   RS =  0.27
+   CJO =  1e-12
+   VJ =  0.75
+   TT =  5e-09
+   M =  0.3333
+   BV =  56.0
+   IBV =  0.01
+   N =  1.11
+   EG = 1.11
+   XTI =  3
+   KF = 0
+   AF= 1
+   FC =  0.1035
+   TNOM =  27
)

.MODEL BZD23-C62 D (
+   IS =  2.154e-10
+   RS =  0.27
+   CJO =  1e-12
+   VJ =  0.75
+   TT =  5e-09
+   M =  0.3333
+   BV =  62.0
+   IBV =  0.01
+   N =  1.11
+   EG = 1.11
+   XTI =  3
+   KF = 0
+   AF= 1
+   FC =  0.1035
+   TNOM =  27
)

.MODEL BZD23-C68 D (
+   IS =  2.154e-10
+   RS =  0.27
+   CJO =  1e-12
+   VJ =  0.75
+   TT =  5e-09
+   M =  0.3333
+   BV =  68.0
+   IBV = 0.01
+   N =  1.11
+   EG = 1.11
+   XTI =  3
+   KF = 0
+   AF= 1
94+   FC =  0.1035
+   TNOM =  27
)

.MODEL BZD23-C75 D (
+   IS =  2.154e-10
+   RS =  0.27
+   CJO =  1e-12
+   VJ =  0.75
+   TT =  5e-09
+   M =  0.3333
+   BV =  75.0
+   IBV =  0.01
+   N =  1.11
+   EG = 1.11
+   XTI =  3
+   KF = 0
+   AF= 1
+   FC =  0.08621
+   TNOM =  27
)

.MODEL BZD23-C7V5 D (
+   IS =  2.154e-10
+   RS =  0.27
+   CJO =  1e-12
+   VJ =  0.75
+   TT =  5e-09
+   M =  0.3333
+   BV =  7.5
+   IBV =  0.1
+   N =  1.11
+   EG = 1.11
+   XTI =  3
+   KF = 0
+   AF= 1
+   FC =  0.3134
+   TNOM =  27
)

.MODEL BZD23-C82 D (
+   IS =  2.154e-10
+   RS =  0.27
+   CJO =  1e-12
+   VJ =  0.75
+   TT =  5e-09
+   M =  0.3333
+   BV =  82.0
+   IBV =  0.01
+   N =  1.11
+   EG = 1.11
+   XTI =  3
+   KF = 0
+   AF= 1
+   FC =  0.08621
+   TNOM =  27
)

.MODEL BZD23-C8V2 D (
+   IS =  2.154e-10
+   RS =  0.27
+   CJO =  1e-12
+   VJ =  0.75
+   TT =  5e-09
+   M =  0.3333
+   BV =  8.2
+   IBV =  0.1
+   N =  1.11
+   EG = 1.11
+   XTI =  3
+   KF = 0
+   AF= 1
+   FC =  0.2586
+   TNOM =  27
)

.MODEL BZD23-C91 D (
+   IS =  2.154e-10
+   RS =  0.27
+   CJO =  1e-12
+   VJ =  0.75
+   TT =  5e-09
+   M =  0.3333
+   BV =  91.0
+   IBV =  0.005
+   N =  1.11
+   EG = 1.11
+   XTI =  3
+   KF = 0
+   AF= 1
+   FC =  0.08621
+   TNOM =  27
)

.MODEL BZD23-C9V1 D (
+   IS =  2.154e-10
+   RS =  0.27
+   CJO =  1e-12
+   VJ =  0.75
+   TT =  5e-09
+   M =  0.3333
+   BV =  9.1
+   IBV = 0.05
+   N =  1.11
+   EG = 1.11
+   XTI =  3
+   KF = 0
+   AF= 1
+   FC =  0.2586
+   TNOM =  27
)

.MODEL BZD27-C10 D (
+   IS =  1.003e-10
+   RS =  0.286
+   CJO =  1e-12
+   VJ =  0.75
+   TT =  5e-09
+   M =  0.3333
+   BV =  10.0
+   IBV =  0.05
+   N =  1.11
+   EG = 1.11
+   XTI =  3
+   KF = 0
+   AF= 1
+   FC =  0.293
+   TNOM =  27
)

.MODEL BZD27-C100 D (
+   IS =  1.003e-10
+   RS =  0.286
+   CJO =  1e-12
+   VJ =  0.75
+   TT =  5e-09
+   M =  0.3333
+   BV =  100.
+   IBV =  0.005
+   N =  1.11
+   EG = 1.11
+   XTI =  3
+   KF = 0
+   AF= 1
+   FC =  0.08655
+   TNOM =  27
)

.MODEL BZD27-C11 D (
+   IS =  1.003e-10
+   RS =  0.286
+   CJO =  1e-12
+   VJ =  0.75
+   TT =  5e-09
+   M =  0.3333
+   BV =  11.0
+   IBV =  0.05
+   N =  1.11
+   EG = 1.11
+   XTI =  3
+   KF = 0
+   AF= 1
+   FC =  0.1374
+   TNOM =  27
)

.MODEL BZD27-C110 D (
+   IS =  1.003e-10
+   RS =  0.286
+   CJO =  1e-12
+   VJ =  0.75
+   TT =  5e-09
+   M =  0.3333
+   BV =  110.
+   IBV =  0.005
+   N =  1.11
+   EG = 1.11
+   XTI =  3
+   KF = 0
+   AF= 1
+   FC =  0.06485
+   TNOM =  27
)

.MODEL BZD27-C12 D (
+   IS =  1.003e-10
+   RS =  0.286
+   CJO =  1e-12
+   VJ =  0.75
+   TT =  5e-09
+   M =  0.3333
+   BV =  12.0
+   IBV =  0.05
+   N =  1.11
+   EG = 1.11
+   XTI =  3
+   KF = 0
+   AF= 1
+   FC =  0.1374
+   TNOM =  27
)

.MODEL BZD27-C120 D (
+   IS =  1.003e-10
+   RS =  0.286
+   CJO =  1e-12
+   VJ =  0.75
+   TT =  5e-09
+   M =  0.3333
+   BV =  120.
+   IBV =  0.005
+   N =  1.11
+   EG = 1.11
+   XTI =  3
+   KF = 0
+   AF= 1
+   FC =  0.06485
+   TNOM =  27
)

.MODEL BZD27-C13 D (
+   IS =  1.003e-10
+   RS =  0.286
+   CJO =  1e-12
+   VJ =  0.75
+   TT =  5e-09
+   M =  0.3333
+   BV =  13.0
+   IBV =  0.05
+   N =  1.11
+   EG = 1.11
+   XTI =  3
+   KF = 0
+   AF= 1
+   FC =  0.1085
+   TNOM =  27
)

.MODEL BZD27-C130 D (
+   IS =  1.003e-10
+   RS =  0.286
+   CJO =  1e-12
+   VJ =  0.75
+   TT =  5e-09
+   M =  0.3333
+   BV =  130.
+   IBV =  0.005
+   N =  1.11
+   EG = 1.11
+   XTI =  3
+   KF = 0
+   AF= 1
+   FC =  0.04713
+   TNOM =  27
)

.MODEL BZD27-C15 D (
+   IS =  1.003e-10
+   RS =  0.286
+   CJO =  1e-12
+   VJ =  0.75
+   TT =  5e-09
+   M =  0.3333
+   BV =  15.0
+   IBV =  0.05
+   N =  1.11
+   EG = 1.11
+   XTI =  3
+   KF = 0
+   AF= 1
+   FC =  0.1085
+   TNOM =  27
)

.MODEL BZD27-C150 D (
+   IS =  1.003e-10
+   RS =  0.286
+   CJO =  1e-12
+   VJ =  0.75
+   TT =  5e-09
+   M =  0.3333
+   BV =  150.
+   IBV =  0.05
+   N =  1.11
+   EG = 1.11
+   XTI =  3
+   KF = 0
+   AF= 1
+   FC =  0.03986
+   TNOM =  27
)

.MODEL BZD27-C16 D (
+   IS =  1.003e-10
+   RS =  0.286
+   CJO =  1e-12
+   VJ =  0.75
+   TT =  5e-09
+   M =  0.3333
+   BV =  16.0
+   IBV =  0.025
+   N =  1.11
+   EG = 1.11
+   XTI =  3
+   KF = 0
+   AF= 1
+   FC =  0.1794
+   TNOM =  27
)

.MODEL BZD27-C160 D (
+   IS =  1.003e-10
+   RS =  0.286
+   CJO =  1e-12
+   VJ =  0.75
+   TT =  5e-09
+   M =  0.3333
+   BV =  160
+   IBV =  0.005
+   N =  1.11
+   EG = 1.11
+   XTI =  3
+   KF = 0
+   AF= 1
+   FC =  0.03454
+   TNOM =  27
)

.MODEL BZD27-C18 D (
+   IS =  1.003e-10
+   RS =  0.286
+   CJO =  1e-12
+   VJ =  0.75
+   TT =  5e-09
+   M =  0.3333
+   BV =  18.0
+   IBV = 0.025
+   N =  1.11
+   EG = 1.11
+   XTI =  3
+   KF = 0
+   AF= 1
+   FC =  0.1794
+   TNOM =  27
)

.MODEL BZD27-C180 D (
+   IS =  1.003e-10
+   RS =  0.286
+   CJO =  1e-12
+   VJ =  0.75
+   TT =  5e-09
+   M =  0.3333
+   BV =  180
+   IBV =  0.005
+   N =  1.11
+   EG = 1.11
+   XTI =  3
+   KF = 0
+   AF= 1
+   FC =  0.02878
+   TNOM =  27
)

.MODEL BZD27-C20 D (
+   IS =  1.003e-10
+   RS =  0.286
+   CJO =  1e-12
+   VJ =  0.75
+   TT =  5e-09
+   M =  0.3333
+   BV =  20.0
+   IBV =  0.025
+   N =  1.11
+   EG = 1.11
+   XTI =  3
+   KF = 0
+   AF= 1
+   FC =  0.1794
+   TNOM =  27
)

.MODEL BZD27-C200 D (
+   IS =  1.003e-10
+   RS =  0.286
+   CJO =  1e-12
+   VJ =  0.75
+   TT =  5e-09
+   M =  0.3333
+   BV =  200
+   IBV =  0.005
+   N =  1.11
+   EG = 1.11
+   XTI =  3
+   KF = 0
+   AF= 1
+   FC =  0.02589
+   TNOM =  27
)

.MODEL BZD27-C22 D (
+   IS =  1.003e-10
+   RS =  0.286
+   CJO =  1e-12
+   VJ =  0.75
+   TT =  5e-09
+   M =  0.3333
+   BV =  22.0
+   IBV =  0.025
+   N =  1.11
+   EG = 1.11
+   XTI =  3
+   KF = 0
+   AF= 1
+   FC =  0.1794
+   TNOM =  27
)

.MODEL BZD27-C220 D (
+   IS =  1.003e-10
+   RS =  0.286
+   CJO =  1e-12
+   VJ =  0.75
+   TT =  5e-09
+   M =  0.3333
+   BV =  220.
+   IBV =  0.002
+   N =  1.11
+   EG = 1.11
+   XTI =  3
+   KF = 0
+   AF= 1
+   FC =  0.03697
+   TNOM =  27
)

.MODEL BZD27-C24 D (
+   IS =  1.003e-10
+   RS =  0.286
+   CJO =  1e-12
+   VJ =  0.75
+   TT =  5e-09
+   M =  0.3333
+   BV =  24.0
+   IBV =  0.025
+   N =  1.11
+   EG = 1.11
+   XTI =  3
+   KF = 0
+   AF= 1
+   FC =  0.1529
+   TNOM =  27
)

.MODEL BZD27-C240 D (
+   IS =  1.003e-10
+   RS =  0.286
+   CJO =  1e-12
+   VJ =  0.75
+   TT =  5e-09
+   M =  0.3333
+   BV =  240.
+   IBV =  0.002
+   N =  1.11
+   EG = 1.11
+   XTI =  3
+   KF = 0
+   AF= 1
+   FC =  0.03235
+   TNOM =  27
)

.MODEL BZD27-C27 D (
+   IS =  1.003e-10
+   RS =  0.286
+   CJO =  1e-12
+   VJ =  0.75
+   TT =  5e-09
+   M =  0.3333
+   BV =  27.0
+   IBV =  0.025
+   N =  1.11
+   EG = 1.11
+   XTI =  3
+   KF = 0
+   AF= 1
+   FC =  0.1529
+   TNOM =  27
)

.MODEL BZD27-C270 D (
+   IS =  1.003e-10
+   RS =  0.286
+   CJO =  1e-12
+   VJ =  0.75
+   TT =  5e-09
+   M =  0.3333
+   BV =  270.
+   IBV =  0.002
+   N =  1.11
+   EG = 1.11
+   XTI =  3
+   KF = 0
+   AF= 1
+   FC =  0.02875
+   TNOM =  27
)

.MODEL BZD27-C30 D (
+   IS =  1.003e-10
+   RS =  0.286
+   CJO =  1e-12
+   VJ =  0.75
+   TT =  5e-09
+   M =  0.3333
+   BV =  30.0
+   IBV =  0.025
+   N =  1.11
+   EG = 1.11
+   XTI =  3
+   KF = 0
+   AF= 1
+   FC =  0.1332
+   TNOM =  27
)

.MODEL BZD27-C33 D (
+   IS =  1.003e-10
+   RS =  0.286
+   CJO =  1e-12
+   VJ =  0.75
+   TT =  5e-09
+   M =  0.3333
+   BV =  33.0
+   IBV =  0.025
+   N =  1.11
+   EG = 1.11
+   XTI =  3
+   KF = 0
+   AF= 1
+   FC =  0.1332
+   TNOM =  27
)

.MODEL BZD27-C36 D (
+   IS =  1.003e-10
+   RS =  0.286
+   CJO =  1e-12
+   VJ =  0.75
+   TT =  5e-09
+   M =  0.3333
+   BV =  36.0
+   IBV =  0.01
+   N =  1.11
+   EG = 1.11
+   XTI =  3
+   KF = 0
+   AF= 1
+   FC =  0.1246
+   TNOM =  27
)

.MODEL BZD27-C39 D (
+   IS =  1.003e-10
+   RS =  0.286
+   CJO =  1e-12
+   VJ =  0.75
+   TT =  5e-09
+   M =  0.3333
+   BV =  39.0
+   IBV =  0.01
+   N =  1.11
+   EG = 1.11
+   XTI =  3
+   KF = 0
+   AF= 1
+   FC =  0.1246
+   TNOM =  27
)

.MODEL BZD27-C43 D (
+   IS =  1.003e-10
+   RS =  0.286
+   CJO =  1e-12
+   VJ =  0.75
+   TT =  5e-09
+   M =  0.3333
+   BV =  43.0
+   IBV =  0.01
+   N =  1.11
+   EG = 1.11
+   XTI =  3
+   KF = 0
+   AF= 1
+   FC =  0.1088
+   TNOM =  27
)

.MODEL BZD27-C47 D (
+   IS =  1.003e-10
+   RS =  0.286
+   CJO =  1e-12
+   VJ =  0.75
+   TT =  5e-09
+   M =  0.3333
+   BV =  47.0
+   IBV =  0.01
+   N =  1.11
+   EG = 1.11
+   XTI =  3
+   KF = 0
+   AF= 1
+   FC =  0.1088
+   TNOM =  27
)

.MODEL BZD27-C51 D (
+   IS =  1.003e-10
+   RS =  0.286
+   CJO =  1e-12
+   VJ =  0.75
+   TT =  5e-09
+   M =  0.3333
+   BV =  51.0
+   IBV =  0.01
+   N =  1.11
+   EG = 1.11
+   XTI =  3
+   KF = 0
+   AF= 1
+   FC =  0.1044
+   TNOM =  27
)

.MODEL BZD27-C56 D (
+   IS =  1.003e-10
+   RS =  0.286
+   CJO =  1e-12
+   VJ =  0.75
+   TT =  5e-09
+   M =  0.3333
+   BV =  56.0
+   IBV =  0.01
+   N =  1.11
+   EG = 1.11
+   XTI =  3
+   KF = 0
+   AF= 1
+   FC =  0.1044
+   TNOM =  27
)

.MODEL BZD27-C62 D (
+   IS =  1.003e-10
+   RS =  0.286
+   CJO =  1e-12
+   VJ =  0.75
+   TT =  5e-09
+   M =  0.3333
+   BV =  62.0
+   IBV =  0.01
+   N =  1.11
+   EG = 1.11
+   XTI =  3
+   KF = 0
+   AF= 1
+   FC =  0.1044
+   TNOM =  27
)

.MODEL BZD27-C68 D (
+   IS =  1.003e-10
+   RS =  0.286
+   CJO =  1e-12
+   VJ =  0.75
+   TT =  5e-09
+   M =  0.3333
+   BV =  68.0
+   IBV =  0.01
+   N =  1.11
+   EG = 1.11
+   XTI =  3
+   KF = 0
+   AF= 1
+   FC =  0.1044
+   TNOM =  27
)

.MODEL BZD27-C75 D (
+   IS =  1.003e-10
+   RS =  0.286
+   CJO =  1e-12
+   VJ =  0.75
+   TT =  5e-09
+   M =  0.3333
+   BV =  75.0
+   IBV =  0.01
+   N =  1.11
+   EG = 1.11
+   XTI =  3
+   KF = 0
+   AF= 1
+   FC =  0.08689
+   TNOM =  27
)

.MODEL BZD27-C7V5 D (
+   IS =  1.003e-10
+   RS =  0.286
+   CJO =  1e-12
+   VJ =  0.75
+   TT =  5e-09
+   M =  0.3333
+   BV =  7.50
+   IBV =  0.1
+   N =  1.11
+   EG = 1.11
+   XTI =  3
+   KF = 0
+   AF= 1
+   FC =  0.3379
+   TNOM =  27
)

.MODEL BZD27-C82 D (
+   IS =  1.003e-10
+   RS =  0.286
+   CJO =  1e-12
+   VJ =  0.75
+   TT =  5e-09
+   M =  0.3333
+   BV =  82.0
+   IBV =  0.01
+   N =  1.11
+   EG = 1.11
+   XTI =  3
+   KF = 0
+   AF= 1
+   FC =  0.08689
+   TNOM =  27
)

.MODEL BZD27-C8V2 D (
+   IS =  1.003e-10
+   RS =  0.286
+   CJO =  1e-12
+   VJ =  0.75
+   TT =  5e-09
+   M =  0.3333
+   BV =  8.20
+   IBV =  0.1
+   N =  1.11
+   EG = 1.11
+   XTI =  3
+   KF = 0
+   AF= 1
+   FC =  0.3379
+   TNOM =  27
)

.MODEL BZD27-C91 D (
+   IS =  1.003e-10
+   RS =  0.286
+   CJO =  1e-12
+   VJ =  0.75
+   TT =  5e-09
+   M =  0.3333
+   BV =  91.0
+   IBV =  0.005
+   N =  1.11
+   EG = 1.11
+   XTI =  3
+   KF = 0
+   AF= 1
+   FC =  0.08655
+   TNOM =  27
)

.MODEL BZD27-C9V1 D (
+   IS =  1.003e-10
+   RS =  0.286
+   CJO =  1e-12
+   VJ =  0.75
+   TT =  5e-09
+   M =  0.3333
+   BV =  9.1
+   IBV =  0.05
+   N =  1.11
+   EG = 1.11
+   XTI =  3
+   KF = 0
+   AF= 1
+   FC =  0.293
+   TNOM =  27
)

.MODEL BZT03-C10 D (
+   IS =  3.001e-10
+   RS =  0.19
+   CJO =  1e-12
+   VJ =  0.75
+   TT =  5e-09
+   M =  0.3333
+   BV =  10.0
+   IBV =  0.05
+   N =  1.11
+   EG = 1.11
+   XTI =  3
+   KF = 0
+   AF= 1
+   FC =  0.2706
+   TNOM =  27
)

.MODEL BZT03-C100 D (
+   IS =  3.001e-10
+   RS =  0.19
+   CJO =  1e-12
+   VJ =  0.75
+   TT =  5e-09
+   M =  0.3333
+   BV =  100.
+   IBV =  0.005
+   N =  1.11
+   EG = 1.11
+   XTI =  3
+   KF = 0
+   AF= 1
+   FC =  0.08634
+   TNOM =  27
)

.MODEL BZT03-C11 D (
+   IS =  3.001e-10
+   RS =  0.19
+   CJO =  1e-12
+   VJ =  0.75
+   TT =  5e-09
+   M =  0.3333
+   BV =  11.0
+   IBV =  0.05
+   N =  1.11
+   EG = 1.11
+   XTI =  3
+   KF = 0
+   AF= 1
+   FC =  0.1322
+   TNOM =  27
)

.MODEL BZT03-C110 D (
+   IS =  3.001e-10
+   RS =  0.19
+   CJO =  1e-12
+   VJ =  0.75
+   TT =  5e-09
+   M =  0.3333
+   BV =  110.
+   IBV =  0.005
+   N =  1.11
+   EG = 1.11
+   XTI =  3
+   KF = 0
+   AF= 1
+   FC =  0.06473
+   TNOM =  27
)

.MODEL BZT03-C12 D (
+   IS =  3.001e-10
+   RS =  0.19
+   CJO =  1e-12
+   VJ =  0.75
+   TT =  5e-09
+   M =  0.3333
+   BV =  12.0
+   IBV =  0.05
+   N =  1.11
+   EG = 1.11
+   XTI =  3
+   KF = 0
+   AF= 1
+   FC =  0.1322
+   TNOM =  27
)

.MODEL BZT03-C120 D (
+   IS =  3.001e-10
+   RS =  0.19
+   CJO =  1e-12
+   VJ =  0.75
+   TT =  5e-09
+   M =  0.3333
+   BV =  120.
+   IBV =  0.005
+   N =  1.11
+   EG = 1.11
+   XTI =  3
+   KF = 0
+   AF= 1
+   FC =  0.06473
+   TNOM =  27
)

.MODEL BZT03-C13 D (
+   IS =  3.001e-10
+   RS =  0.19
+   CJO =  1e-12
+   VJ =  0.75
+   TT =  5e-09
+   M =  0.3333
+   BV =  13.0
+   IBV =  0.005
+   N =  1.11
+   EG = 1.11
+   XTI =  3
+   KF = 0
+   AF= 1
+   FC =  0.1053
+   TNOM =  27
)

.MODEL BZT03-C130 D (
+   IS =  3.001e-10
+   RS =  0.19
+   CJO =  1e-12
+   VJ =  0.75
+   TT =  5e-09
+   M =  0.3333
+   BV =  130.
+   IBV =  0.005
+   N =  1.11
+   EG = 1.11
+   XTI =  3
+   KF = 0
+   AF= 1
+   FC =  0.04706
+   TNOM =  27
)

.MODEL BZT03-C15 D (
+   IS =  3.001e-10
+   RS =  0.19
+   CJO =  1e-12
+   VJ =  0.75
+   TT =  5e-09
+   M =  0.3333
+   BV =  15.0
+   IBV =  0.05
+   N =  1.11
+   EG = 1.11
+   XTI =  3
+   KF = 0
+   AF= 1
+   FC =  0.1053
+   TNOM =  27
)

.MODEL BZT03-C150 D (
+   IS =  3.001e-10
+   RS =  0.19
+   CJO =  1e-12
+   VJ =  0.75
+   TT =  5e-09
+   M =  0.3333
+   BV =  150.
+   IBV =  0.005
+   N =  1.11
+   EG = 1.11
+   XTI =  3
+   KF = 0
+   AF= 1
+   FC =  0.03982
+   TNOM =  27
)

.MODEL BZT03-C16 D (
+   IS =  3.001e-10
+   RS =  0.19
+   CJO =  1e-12
+   VJ =  0.75
+   TT =  5e-09
+   M =  0.3333
+   BV =  16.0
+   IBV =  0.025
+   N =  1.11
+   EG = 1.11
+   XTI =  3
+   KF = 0
+   AF= 1
+   FC =  0.175
+   TNOM =  27
)

.MODEL BZT03-C160 D (
+   IS =  3.001e-10
+   RS =  0.19
+   CJO =  1e-12
+   VJ =  0.75
+   TT =  5e-09
+   M =  0.3333
+   BV =  160
+   IBV =  0.005
+   N =  1.11
+   EG = 1.11
+   XTI =  3
+   KF = 0
+   AF= 1
+   FC =  0.03451
+   TNOM =  27
)

.MODEL BZT03-C18 D (
+   IS =  3.001e-10
+   RS =  0.19
+   CJO =  1e-12
+   VJ =  0.75
+   TT =  5e-09
+   M =  0.3333
+   BV =  18.0
+   IBV =  0.025
+   N =  1.11
+   EG = 1.11
+   XTI =  3
+   KF = 0
+   AF= 1
+   FC =  0.175
+   TNOM =  27
)

.MODEL BZT03-C180 D (
+   IS =  3.001e-10
+   RS =  0.19
+   CJO =  1e-12
+   VJ =  0.75
+   TT =  5e-09
+   M =  0.3333
+   BV =  180
+   IBV =  0.005
+   N =  1.11
+   EG = 1.11
+   XTI =  3
+   KF = 0
+   AF= 1
+   FC =  0.02875
+   TNOM =  27
)

.MODEL BZT03-C20 D (
+   IS =  3.001e-10
+   RS =  0.19
+   CJO =  1e-12
+   VJ =  0.75
+   TT =  5e-09
+   M =  0.3333
+   BV =  20.0
+   IBV =  0.025
+   N =  1.11
+   EG = 1.11
+   XTI =  3
+   KF = 0
+   AF= 1
+   FC =  0.175
+   TNOM =  27
)

.MODEL BZT03-C200 D (
+   IS =  3.001e-10
+   RS =  0.19
+   CJO =  1e-12
+   VJ =  0.75
+   TT =  5e-09
+   M =  0.3333
+   BV =  200
+   IBV =  0.002
+   N =  1.11
+   EG = 1.11
+   XTI =  3
+   KF = 0
+   AF= 1
+   FC =  0.02588
+   TNOM =  27
)

.MODEL BZT03-C22 D (
+   IS =  3.001e-10
+   RS =  0.19
+   CJO =  1e-12
+   VJ =  0.75
+   TT =  5e-09
+   M =  0.3333
+   BV =  22.0
+   IBV =  0.025
+   N =  1.11
+   EG = 1.11
+   XTI =  3
+   KF = 0
+   AF= 1
+   FC =  0.175
+   TNOM =  27
)

.MODEL BZT03-C220 D (
+   IS =  3.001e-10
+   RS =  0.19
+   CJO =  1e-12
+   VJ =  0.75
+   TT =  5e-09
+   M =  0.3333
+   BV =  220.
+   IBV =  0.002
+   N =  1.11
+   EG = 1.11
+   XTI =  3
+   KF = 0
+   AF= 1
+   FC =  0.03696
+   TNOM =  27
)

.MODEL BZT03-C24 D (
+   IS =  3.001e-10
+   RS =  0.19
+   CJO =  1e-12
+   VJ =  0.75
+   TT =  5e-09
+   M =  0.3333
+   BV =  24.0
+   IBV =  0.025
+   N =  1.11
+   EG = 1.11
+   XTI =  3
+   KF = 0
+   AF= 1
+   FC =  0.1497
+   TNOM =  27
)

.MODEL BZT03-C240 D (
+   IS =  3.001e-10
+   RS =  0.19
+   CJO =  1e-12
+   VJ =  0.75
+   TT =  5e-09
+   M =  0.3333
+   BV =  240.
+   IBV =  0.002
+   N =  1.11
+   EG = 1.11
+   XTI =  3
+   KF = 0
+   AF= 1
+   FC =  0.03234
+   TNOM =  27
)

.MODEL BZT03-C27 D (
+   IS =  3.001e-10
+   RS =  0.19
+   CJO =  1e-12
+   VJ =  0.75
+   TT =  5e-09
+   M =  0.3333
+   BV =  27.0
+   IBV =  0.025
+   N =  1.11
+   EG = 1.11
+   XTI =  3
+   KF = 0
+   AF= 1
+   FC =  0.1497
+   TNOM =  27
)

.MODEL BZT03-C270 D (
+   IS =  3.001e-10
+   RS =  0.19
+   CJO =  1e-12
+   VJ =  0.75
+   TT =  5e-09
+   M =  0.3333
+   BV =  270.
+   IBV =  0.002
+   N =  1.11
+   EG = 1.11
+   XTI =  3
+   KF = 0
+   AF= 1
+   FC =  0.02874
+   TNOM =  27
)

.MODEL BZT03-C30 D (
+   IS =  3.001e-10
+   RS =  0.19
+   CJO =  1e-12
+   VJ =  0.75
+   TT =  5e-09
+   M =  0.3333
+   BV =  30.0
+   IBV =  0.025
+   N =  1.11
+   EG = 1.11
+   XTI =  3
+   KF = 0
+   AF= 1
+   FC =  0.1308
+   TNOM =  27
)

.MODEL BZT03-C33 D (
+   IS =  3.001e-10
+   RS =  0.19
+   CJO =  1e-12
+   VJ =  0.75
+   TT =  5e-09
+   M =  0.3333
+   BV =  33.0
+   IBV =  0.025
+   N =  1.11
+   EG = 1.11
+   XTI =  3
+   KF = 0
+   AF= 1
+   FC =  0.1308
+   TNOM =  27
)

.MODEL BZT03-C36 D (
+   IS =  3.001e-10
+   RS =  0.19
+   CJO =  1e-12
+   VJ =  0.75
+   TT =  5e-09
+   M =  0.3333
+   BV =  36.0
+   IBV =  0.01
+   N =  1.11
+   EG = 1.11
+   XTI =  3
+   KF = 0
+   AF= 1
+   FC =  0.1237
+   TNOM =  27
)

.MODEL BZT03-C39 D (
+   IS =  3.001e-10
+   RS =  0.19
+   CJO =  1e-12
+   VJ =  0.75
+   TT =  5e-09
+   M =  0.3333
+   BV =  39.0
+   IBV =  0.01
+   N =  1.11
+   EG = 1.11
+   XTI =  3
+   KF = 0
+   AF= 1
+   FC =  0.1237
+   TNOM =  27
)

.MODEL BZT03-C43 D (
+   IS =  3.001e-10
+   RS =  0.19
+   CJO =  1e-12
+   VJ =  0.75
+   TT =  5e-09
+   M =  0.3333
+   BV =  43.0
+   IBV =  0.01
+   N =  1.11
+   EG = 1.11
+   XTI =  3
+   KF = 0
+   AF= 1
+   FC =  0.1082
+   TNOM =  27
)

.MODEL BZT03-C47 D (
+   IS =  3.001e-10
+   RS =  0.19
+   CJO =  1e-12
+   VJ =  0.75
+   TT =  5e-09
+   M =  0.3333
+   BV =  47.0
+   IBV =  0.01
+   N =  1.11
+   EG = 1.11
+   XTI =  3
+   KF = 0
+   AF= 1
+   FC =  0.1082
+   TNOM =  27
)

.MODEL BZT03-C51 D (
+   IS =  3.001e-10
+   RS =  0.19
+   CJO =  1e-12
+   VJ =  0.75
+   TT =  5e-09
+   M =  0.3333
+   BV =  51.0
+   IBV =  0.01
+   N =  1.11
+   EG = 1.11
+   XTI =  3
+   KF = 0
+   AF= 1
+   FC =  0.1038
+   TNOM =  27
)

.MODEL BZT03-C56 D (
+   IS =  3.001e-10
+   RS =  0.19
+   CJO =  1e-12
+   VJ =  0.75
+   TT =  5e-09
+   M =  0.3333
+   BV =  56.0
+   IBV =  0.01
+   N =  1.11
+   EG = 1.11
+   XTI =  3
+   KF = 0
+   AF= 1
+   FC =  0.1038
+   TNOM =  27
)

.MODEL BZT03-C62 D (
+   IS =  3.001e-10
+   RS =  0.19
+   CJO =  1e-12
+   VJ =  0.75
+   TT =  5e-09
+   M =  0.3333
+   BV =  62.0
+   IBV =  0.01
+   N =  1.11
+   EG = 1.11
+   XTI =  3
+   KF = 0
+   AF= 1
+   FC =  0.1038
+   TNOM =  27
)

.MODEL BZT03-C75 D (
+   IS =  3.001e-10
+   RS =  0.19
+   CJO =  1e-12
+   VJ =  0.75
+   TT =  5e-09
+   M =  0.3333
+   BV =  75.0
+   IBV =  0.01
+   N =  1.11
+   EG = 1.11
+   XTI =  3
+   KF = 0
+   AF= 1
+   FC =  0.08647
+   TNOM =  27
)

.MODEL BZT03-C7V5 D (
+   IS =  3.001e-10
+   RS =  0.19
+   CJO =  1e-12
+   VJ =  0.75
+   TT =  5e-09
+   M =  0.3333
+   BV =  7.5
+   IBV =  0.1
+   N =  1.11
+   EG = 1.11
+   XTI =  3
+   KF = 0
+   AF= 1
+   FC =  0.2837
+   TNOM =  27
)

.MODEL BZT03-C82 D (
+   IS =  3.001e-10
+   RS =  0.19
+   CJO =  1e-12
+   VJ =  0.75
+   TT =  5e-09
+   M =  0.3333
+   BV =  82.0
+   IBV =  0.01
+   N =  1.11
+   EG = 1.11
+   XTI =  3
+   KF = 0
+   AF= 1
+   FC =  0.08647
+   TNOM =  27
)

.MODEL BZT03-C8V2 D (
+   IS =  3.001e-10
+   RS =  0.19
+   CJO =  1e-12
+   VJ =  0.75
+   TT =  5e-09
+   M =  0.3333
+   BV =  8.2
+   IBV =  0.1
+   N =  1.11
+   EG = 1.11
+   XTI =  3
+   KF = 0
+   AF= 1
+   FC =  0.2837
+   TNOM =  27
)

.MODEL BZT03-C91 D (
+   IS =  3.001e-10
+   RS =  0.19
+   CJO =  1e-12
+   VJ =  0.75
+   TT =  5e-09
+   M =  0.3333
+   BV =  91.0
+   IBV =  0.005
+   N =  1.11
+   EG = 1.11
+   XTI =  3
+   KF = 0
+   AF= 1
+   FC =  0.08634
+   TNOM =  27
)

.MODEL BZT03-C9V1 D (
+   IS =  3.001e-10
+   RS =  0.19
+   CJO =  1e-12
+   VJ =  0.75
+   TT =  5e-09
+   M =  0.3333
+   BV =  9.1
+   IBV =  0.05
+   N =  1.11
+   EG = 1.11
+   XTI =  3
+   KF = 0
+   AF= 1
+   FC =  0.2706
+   TNOM =  27
)

.MODEL BZW03-C10 D (
+   IS =  3.01e-08
+   RS =  0.0832
+   CJO =  1e-12
+   VJ =  0.75
+   TT =  5e-09
+   M =  0.3333
+   BV =  10.0
+   IBV =  0.15
+   N =  1.11
+   EG = 1.11
+   XTI =  3
+   KF = 0
+   AF= 1
+   FC =  0.2195
+   TNOM =  27
)

.MODEL BZW03-C100 D (
+   IS =  3.01e-08
+   RS =  0.0832
+   CJO =  1e-12
+   VJ =  0.75
+   TT =  5e-09
+   M =  0.3333
+   BV =  100
+   IBV =  0.012
+   N =  1.11
+   EG = 1.11
+   XTI =  3
+   KF = 0
+   AF= 1
+   FC =  0.04796
+   TNOM =  27
)

.MODEL BZW03-C11 D (
+   IS =  3.01e-08
+   RS =  0.0832
+   CJO =  1e-12
+   VJ =  0.75
+   TT =  5e-09
+   M =  0.3333
+   BV =  11
+   IBV =  0.125
+   N =  1.11
+   EG = 1.11
+   XTI =  3
+   KF = 0
+   AF= 1
+   FC =  0.1984
+   TNOM =  27
)

.MODEL BZW03-C110 D (
+   IS =  3.01e-08
+   RS =  0.0832
+   CJO =  1e-12
+   VJ =  0.75
+   TT =  5e-09
+   M =  0.3333
+   BV =  110
+   IBV =  0.012
+   N =  1.11
+   EG = 1.11
+   XTI =  3
+   KF = 0
+   AF= 1
+   FC =  0.03319
+   TNOM =  27
)

.MODEL BZW03-C12 D (
+   IS =  3.01e-08
+   RS =  0.0832
+   CJO =  1e-12
+   VJ =  0.75
+   TT =  5e-09
+   M =  0.3333
+   BV =  12.0
+   IBV =  0.1
+   N =  1.11
+   EG = 1.11
+   XTI =  3
+   KF = 0
+   AF= 1
+   FC =  0.248
+   TNOM =  27
)

.MODEL BZW03-C120 D (
+   IS =  3.01e-08
+   RS =  0.0832
+   CJO =  1e-12
+   VJ =  0.75
+   TT =  5e-09
+   M =  0.3333
+   BV =  120
+   IBV =  0.01
+   N =  1.11
+   EG = 1.11
+   XTI =  3
+   KF = 0
+   AF= 1
+   FC =  0.02876
+   TNOM =  27
)

.MODEL BZW03-C13 D (