
.MODEL 2N2222A NPN (
+   IS =  1.16e-14
+   BF =  200
+   BR =  4
+   RB =  1.69
+   RE =  0.423
+   RC =  0.169
+   CJS =  0
+   CJE =  1.95e-11
+   CJC =  9.63e-12
+   VJE =  0.75
+   VJC =  0.75
+   TF =  4.54e-10
+   TR =  1.02e-07
+   MJE =  0.333
+   MJC =  0.333
+   VA =  113
+   ISE =  1.7e-13
+   IKF =  0.41
+   NE =  2
+   NF =  1
+   NR =  1
+   VAR =  1e+30
+   IKR =  1e+30
+   ISC =  0
+   NC =  2
+   IRB =  1e+30
+   RBM =  0
+   XTF =  0
+   VTF =  1e+30
+   ITF =  0
+   PTF =  0
+   XCJC =  1
+   VJS =  0.75
+   MJS =  0
+   XTB =  0
+   EG =  1.11
+   XTI =  3
+   KF =  0
+   AF =  1
+   FC =  0.5
+   TNOM =  27
)
