* COPYRIGHT OF INTERNATIONAL RECTIFIER
**************************************
*      Models Generated by MODPEX    *
*Copyright(c) Symmetry Design Systems*
*         All Rights Reserved        *
*    UNPUBLISHED LICENSED SOFTWARE   *
*   Contains Proprietary Information *
*      Which is The Property of      *
*     SYMMETRY OR ITS LICENSORS      *
*Commercial Use or Resale Restricted *
*   by Symmetry License Agreement    *
**************************************
*****************************************************************
.SUBCKT irf5210 1 2 3
* Model generated on Mar  1, 96
* Model format: SPICE3
* Symmetry POWER MOS Model (Version 1.0)
* External Node Designations
* Node 1 -> Drain
* Node 2 -> Gate
* Node 3 -> Source
M1 9 7 8 8 MM L=100u W=100u
* Default values used in MM:
* The voltage-dependent capacitances are
* not included. Other default values are:
*   RS=0 RD=0 LD=0 CBD=0 CBS=0 CGBO=0
.MODEL MM PMOS LEVEL=1 IS=1e-32
+VTO=-3.812 LAMBDA=0.0047075 KP=13.1836
+CGSO=2.35118e-05 CGDO=1e-11
RS 8 3 0.0239468
D1 1 3 MD
.MODEL MD D IS=1.84954e-13 RS=0.00830863 N=0.954347 BV=-100
+IBV=10 EG=1 XTI=3.16131 TT=1.99994e-05
+CJO=1.88512e-09 VJ=1.14128 M=0.533776 FC=0.1
RDS 3 1 1e+06
RD 9 1 0.0120087
RG 2 7 7.71191
D2 5 4 MD1
* Default values used in MD1:
*   RS=0 EG=1.11 XTI=3.0 TT=0
*   BV=infinite IBV=1mA
.MODEL MD1 D IS=1e-32 N=50
+CJO=4.76014e-09 VJ=1.32275 M=0.797752 FC=1e-08
D3 5 0 MD2
* Default values used in MD2:
*   EG=1.11 XTI=3.0 TT=0 CJO=0
*   BV=infinite IBV=1mA
.MODEL MD2 D IS=1e-10 N=0.400054 RS=3e-06
RL 5 10 1
FI2 7 9 VFI2 -1
VFI2 4 0 0
EV16 10 0 9 7 1
CAP 11 10 6.16265e-09
FI1 7 9 VFI1 -1
VFI1 11 6 0
RCAP 6 10 1
D4 6 0 MD3
* Default values used in MD3:
*   EG=1.11 XTI=3.0 TT=0 CJO=0
*   RS=0 BV=infinite IBV=1mA
.MODEL MD3 D IS=1e-10 N=0.400054
.ENDS
*****************************************************************
.SUBCKT irf5210s 1 2 3
* Model generated on Mar 18, 96
* Model format: SPICE3
* Symmetry POWER MOS Model (Version 1.0)
* External Node Designations
* Node 1 -> Drain
* Node 2 -> Gate
* Node 3 -> Source
M1 9 7 8 8 MM L=100u W=100u
* Default values used in MM:
* The voltage-dependent capacitances are
* not included. Other default values are:
*   RS=0 RD=0 LD=0 CBD=0 CBS=0 CGBO=0
.MODEL MM PMOS LEVEL=1 IS=1e-32
+VTO=-3.812 LAMBDA=0.0047075 KP=13.1836
+CGSO=2.35118e-05 CGDO=1e-11
RS 8 3 0.0239468
D1 1 3 MD
.MODEL MD D IS=1.84954e-13 RS=0.00830863 N=0.954347 BV=-100
+IBV=10 EG=1 XTI=3.16131 TT=1.99994e-05
+CJO=1.88512e-09 VJ=1.14128 M=0.533776 FC=0.1
RDS 3 1 1e+06
RD 9 1 0.0120087
RG 2 7 7.71191
D2 5 4 MD1
* Default values used in MD1:
*   RS=0 EG=1.11 XTI=3.0 TT=0
*   BV=infinite IBV=1mA
.MODEL MD1 D IS=1e-32 N=50
+CJO=4.76014e-09 VJ=1.32275 M=0.797752 FC=1e-08
D3 5 0 MD2
* Default values used in MD2:
*   EG=1.11 XTI=3.0 TT=0 CJO=0
*   BV=infinite IBV=1mA
.MODEL MD2 D IS=1e-10 N=0.400054 RS=3e-06
RL 5 10 1
FI2 7 9 VFI2 -1
VFI2 4 0 0
EV16 10 0 9 7 1
CAP 11 10 6.16265e-09
FI1 7 9 VFI1 -1
VFI1 11 6 0
RCAP 6 10 1
D4 6 0 MD3
* Default values used in MD3:
*   EG=1.11 XTI=3.0 TT=0 CJO=0
*   RS=0 BV=infinite IBV=1mA
.MODEL MD3 D IS=1e-10 N=0.400054
.ENDS
*****************************************************************
.SUBCKT irf5305 1 2 3
* Model generated on Mar 18, 96
* Model format: SPICE3
* Symmetry POWER MOS Model (Version 1.0)
* External Node Designations
* Node 1 -> Drain
* Node 2 -> Gate
* Node 3 -> Source
M1 9 7 8 8 MM L=100u W=100u
* Default values used in MM:
* The voltage-dependent capacitances are
* not included. Other default values are:
*   RS=0 RD=0 LD=0 CBD=0 CBS=0 CGBO=0
.MODEL MM PMOS LEVEL=1 IS=1e-32
+VTO=-3.45761 LAMBDA=0 KP=10.066
+CGSO=1.03141e-05 CGDO=1e-11
RS 8 3 0.0262305
D1 1 3 MD
.MODEL MD D IS=8.90854e-09 RS=0.00921723 N=1.5 BV=-55
+IBV=10 EG=1.2 XTI=3.13635 TT=0.0001
+CJO=1.30546e-09 VJ=0.663932 M=0.419045 FC=0.5
RDS 3 1 1e+06
RD 9 1 0.0001
RG 2 7 11.0979
D2 5 4 MD1
* Default values used in MD1:
*   RS=0 EG=1.11 XTI=3.0 TT=0
*   BV=infinite IBV=1mA
.MODEL MD1 D IS=1e-32 N=50
+CJO=1.63729e-09 VJ=0.791199 M=0.552278 FC=1e-08
D3 5 0 MD2
* Default values used in MD2:
*   EG=1.11 XTI=3.0 TT=0 CJO=0
*   BV=infinite IBV=1mA
.MODEL MD2 D IS=1e-10 N=0.400245 RS=3e-06
RL 5 10 1
FI2 7 9 VFI2 -1
VFI2 4 0 0
EV16 10 0 9 7 1
CAP 11 10 1.89722e-09
FI1 7 9 VFI1 -1
VFI1 11 6 0
RCAP 6 10 1
D4 6 0 MD3
* Default values used in MD3:
*   EG=1.11 XTI=3.0 TT=0 CJO=0
*   RS=0 BV=infinite IBV=1mA
.MODEL MD3 D IS=1e-10 N=0.400245
.ENDS
*****************************************************************
.SUBCKT irf5305s 1 2 3
* Model generated on Mar 18, 96
* Model format: SPICE3
* Symmetry POWER MOS Model (Version 1.0)
* External Node Designations
* Node 1 -> Drain
* Node 2 -> Gate
* Node 3 -> Source
M1 9 7 8 8 MM L=100u W=100u
* Default values used in MM:
* The voltage-dependent capacitances are
* not included. Other default values are:
*   RS=0 RD=0 LD=0 CBD=0 CBS=0 CGBO=0
.MODEL MM PMOS LEVEL=1 IS=1e-32
+VTO=-3.45761 LAMBDA=0 KP=10.066
+CGSO=1.03141e-05 CGDO=1e-11
RS 8 3 0.0262305
D1 1 3 MD
.MODEL MD D IS=8.90854e-09 RS=0.00921723 N=1.5 BV=-55
+IBV=10 EG=1.2 XTI=3.13635 TT=0.0001
+CJO=1.30546e-09 VJ=0.663932 M=0.419045 FC=0.5
RDS 3 1 1e+06
RD 9 1 0.0001
RG 2 7 11.0979
D2 5 4 MD1
* Default values used in MD1:
*   RS=0 EG=1.11 XTI=3.0 TT=0
*   BV=infinite IBV=1mA
.MODEL MD1 D IS=1e-32 N=50
+CJO=1.63729e-09 VJ=0.791199 M=0.552278 FC=1e-08
D3 5 0 MD2
* Default values used in MD2:
*   EG=1.11 XTI=3.0 TT=0 CJO=0
*   BV=infinite IBV=1mA
.MODEL MD2 D IS=1e-10 N=0.400245 RS=3e-06
RL 5 10 1
FI2 7 9 VFI2 -1
VFI2 4 0 0
EV16 10 0 9 7 1
CAP 11 10 1.89722e-09
FI1 7 9 VFI1 -1
VFI1 11 6 0
RCAP 6 10 1
D4 6 0 MD3
* Default values used in MD3:
*   EG=1.11 XTI=3.0 TT=0 CJO=0
*   RS=0 BV=infinite IBV=1mA
.MODEL MD3 D IS=1e-10 N=0.400245
.ENDS
*****************************************************************
.SUBCKT irf7404 1 2 3
* Model generated on Mar 15, 96
* Model format: SPICE3
* Symmetry POWER MOS Model (Version 1.0)
* External Node Designations
* Node 1 -> Drain
* Node 2 -> Gate
* Node 3 -> Source
M1 9 7 8 8 MM L=100u W=100u
* Default values used in MM:
* The voltage-dependent capacitances are
* not included. Other default values are:
*   RS=0 RD=0 LD=0 CBD=0 CBS=0 CGBO=0
.MODEL MM PMOS LEVEL=1 IS=1e-32
+VTO=-1.2409 LAMBDA=0.0242051 KP=29.4843
+CGSO=1.21905e-05 CGDO=1.00004e-11
RS 8 3 0.0204101
D1 1 3 MD
.MODEL MD D IS=2.35132e-08 RS=0.0309021 N=1.5 BV=-20
+IBV=10 EG=1 XTI=3.30006 TT=0.0001
+CJO=1.53395e-09 VJ=0.5 M=0.408189 FC=0.5
RDS 3 1 1e+06
RD 9 1 0.00561115
RG 2 7 5.28996
D2 5 4 MD1
* Default values used in MD1:
*   RS=0 EG=1.11 XTI=3.0 TT=0
*   BV=infinite IBV=1mA
.MODEL MD1 D IS=1e-32 N=50
+CJO=2.9398e-09 VJ=0.5 M=0.6566 FC=1e-08
D3 5 0 MD2
* Default values used in MD2:
*   EG=1.11 XTI=3.0 TT=0 CJO=0
*   BV=infinite IBV=1mA
.MODEL MD2 D IS=1e-10 N=0.4 RS=3e-06
RL 5 10 1
FI2 7 9 VFI2 -1
VFI2 4 0 0
EV16 10 0 9 7 1
CAP 11 10 3.97988e-09
FI1 7 9 VFI1 -1
VFI1 11 6 0
RCAP 6 10 1
D4 6 0 MD3
* Default values used in MD3:
*   EG=1.11 XTI=3.0 TT=0 CJO=0
*   RS=0 BV=infinite IBV=1mA
.MODEL MD3 D IS=1e-10 N=0.4
.ENDS
*****************************************************************
.SUBCKT irf9530 1 2 3
* Model generated on Mar 15, 96
* Model format: SPICE3
* Symmetry POWER MOS Model (Version 1.0)
* External Node Designations
* Node 1 -> Drain
* Node 2 -> Gate
* Node 3 -> Source
M1 9 7 8 8 MM L=100u W=100u
* Default values used in MM:
* The voltage-dependent capacitances are
* not included. Other default values are:
*   RS=0 RD=0 LD=0 CBD=0 CBS=0 CGBO=0
.MODEL MM PMOS LEVEL=1 IS=1e-32
+VTO=-3.35501 LAMBDA=0.0146443 KP=6.16162
+CGSO=7.71788e-06 CGDO=1e-11
RS 8 3 0.0764564
D1 1 3 MD
.MODEL MD D IS=1e-19 RS=0.229111 N=1.5 BV=-100
+IBV=10 EG=1.2 XTI=1 TT=0
+CJO=1.065e-09 VJ=1.1539 M=0.463966 FC=0.5
RDS 3 1 1e+06
RD 9 1 0.105005
RG 2 7 8.24706
D2 5 4 MD1
* Default values used in MD1:
*   RS=0 EG=1.11 XTI=3.0 TT=0
*   BV=infinite IBV=1mA
.MODEL MD1 D IS=1e-32 N=50
+CJO=6.38445e-10 VJ=3.4088 M=0.9 FC=1e-08
D3 5 0 MD2
* Default values used in MD2:
*   EG=1.11 XTI=3.0 TT=0 CJO=0
*   BV=infinite IBV=1mA
.MODEL MD2 D IS=1e-10 N=0.412701 RS=3e-06
RL 5 10 1
FI2 7 9 VFI2 -1
VFI2 4 0 0
EV16 10 0 9 7 1
CAP 11 10 1.2252e-09
FI1 7 9 VFI1 -1
VFI1 11 6 0
RCAP 6 10 1
D4 6 0 MD3
* Default values used in MD3:
*   EG=1.11 XTI=3.0 TT=0 CJO=0
*   RS=0 BV=infinite IBV=1mA
.MODEL MD3 D IS=1e-10 N=0.412701
.ENDS
*****************************************************************
.SUBCKT irfi5210 1 2 3
* Model generated on Mar  4, 96
* Model format: SPICE3
* Symmetry POWER MOS Model (Version 1.0)
* External Node Designations
* Node 1 -> Drain
* Node 2 -> Gate
* Node 3 -> Source
M1 9 7 8 8 MM L=100u W=100u
* Default values used in MM:
* The voltage-dependent capacitances are
* not included. Other default values are:
*   RS=0 RD=0 LD=0 CBD=0 CBS=0 CGBO=0
.MODEL MM PMOS LEVEL=1 IS=1e-32
+VTO=-3.55238 LAMBDA=0 KP=6.43749
+CGSO=2.34369e-05 CGDO=1e-11
RS 8 3 0.000308034
D1 1 3 MD
.MODEL MD D IS=4.32431e-10 RS=0.00802688 N=1.27417 BV=-100
+IBV=10 EG=1.2 XTI=3.05207 TT=1.99993e-05
+CJO=1.74688e-09 VJ=1.48655 M=0.570372 FC=0.1
RDS 3 1 1e+06
RD 9 1 0.0254289
RG 2 7 7.33935
D2 5 4 MD1
* Default values used in MD1:
*   RS=0 EG=1.11 XTI=3.0 TT=0
*   BV=infinite IBV=1mA
.MODEL MD1 D IS=1e-32 N=50
+CJO=4.80424e-09 VJ=1.27771 M=0.783797 FC=1e-08
D3 5 0 MD2
* Default values used in MD2:
*   EG=1.11 XTI=3.0 TT=0 CJO=0
*   BV=infinite IBV=1mA
.MODEL MD2 D IS=1e-10 N=0.4 RS=3e-06
RL 5 10 1
FI2 7 9 VFI2 -1
VFI2 4 0 0
EV16 10 0 9 7 1
CAP 11 10 5.95226e-09
FI1 7 9 VFI1 -1
VFI1 11 6 0
RCAP 6 10 1
D4 6 0 MD3
* Default values used in MD3:
*   EG=1.11 XTI=3.0 TT=0 CJO=0
*   RS=0 BV=infinite IBV=1mA
.MODEL MD3 D IS=1e-10 N=0.4
.ENDS
*****************************************************************
.SUBCKT irfi5305 1 2 3
* Model generated on Mar  4, 96
* Model format: SPICE3
* Symmetry POWER MOS Model (Version 1.0)
* External Node Designations
* Node 1 -> Drain
* Node 2 -> Gate
* Node 3 -> Source
M1 9 7 8 8 MM L=100u W=100u
* Default values used in MM:
* The voltage-dependent capacitances are
* not included. Other default values are:
*   RS=0 RD=0 LD=0 CBD=0 CBS=0 CGBO=0
.MODEL MM PMOS LEVEL=1 IS=1e-32
+VTO=-3.45761 LAMBDA=0 KP=10.066
+CGSO=1.03141e-05 CGDO=1e-11
RS 8 3 0.0262305
D1 1 3 MD
.MODEL MD D IS=8.90854e-09 RS=0.00921723 N=1.5 BV=-55
+IBV=10 EG=1.2 XTI=3.13635 TT=0.0001
+CJO=1.30546e-09 VJ=0.663932 M=0.419045 FC=0.5
RDS 3 1 1e+06
RD 9 1 0.0001
RG 2 7 11.0979
D2 5 4 MD1
* Default values used in MD1:
*   RS=0 EG=1.11 XTI=3.0 TT=0
*   BV=infinite IBV=1mA
.MODEL MD1 D IS=1e-32 N=50
+CJO=1.63729e-09 VJ=0.791199 M=0.552278 FC=1e-08
D3 5 0 MD2
* Default values used in MD2:
*   EG=1.11 XTI=3.0 TT=0 CJO=0
*   BV=infinite IBV=1mA
.MODEL MD2 D IS=1e-10 N=0.400245 RS=3e-06
RL 5 10 1
FI2 7 9 VFI2 -1
VFI2 4 0 0
EV16 10 0 9 7 1
CAP 11 10 1.89722e-09
FI1 7 9 VFI1 -1
VFI1 11 6 0
RCAP 6 10 1
D4 6 0 MD3
* Default values used in MD3:
*   EG=1.11 XTI=3.0 TT=0 CJO=0
*   RS=0 BV=infinite IBV=1mA
.MODEL MD3 D IS=1e-10 N=0.400245
.ENDS
*****************************************************************
.SUBCKT irfm9140 1 2 3
* Model generated on Mar 13, 96
* Model format: SPICE3
* Symmetry POWER MOS Model (Version 1.0)
* External Node Designations
* Node 1 -> Drain
* Node 2 -> Gate
* Node 3 -> Source
M1 9 7 8 8 MM L=100u W=100u
* Default values used in MM:
* The voltage-dependent capacitances are
* not included. Other default values are:
*   RS=0 RD=0 LD=0 CBD=0 CBS=0 CGBO=0
.MODEL MM PMOS LEVEL=1 IS=1e-32
+VTO=-3.4581 LAMBDA=0.0649248 KP=20.1716
+CGSO=1.28444e-05 CGDO=1e-11
RS 8 3 0.0649025
D1 1 3 MD
.MODEL MD D IS=7.40369e-19 RS=0.10545 N=1.5 BV=-100
+IBV=10 EG=1 XTI=1 TT=0.0001
+CJO=1.94408e-09 VJ=0.894856 M=0.435058 FC=0.5
RDS 3 1 1e+06
RD 9 1 0.0622751
RG 2 7 16.3085
D2 5 4 MD1
* Default values used in MD1:
*   RS=0 EG=1.11 XTI=3.0 TT=0
*   BV=infinite IBV=1mA
.MODEL MD1 D IS=1e-32 N=50
+CJO=9.89999e-10 VJ=3.01223 M=0.850761 FC=1e-08
D3 5 0 MD2
* Default values used in MD2:
*   EG=1.11 XTI=3.0 TT=0 CJO=0
*   BV=infinite IBV=1mA
.MODEL MD2 D IS=1e-10 N=0.402362 RS=3e-06
RL 5 10 1
FI2 7 9 VFI2 -1
VFI2 4 0 0
EV16 10 0 9 7 1
CAP 11 10 2.56761e-09
FI1 7 9 VFI1 -1
VFI1 11 6 0
RCAP 6 10 1
D4 6 0 MD3
* Default values used in MD3:
*   EG=1.11 XTI=3.0 TT=0 CJO=0
*   RS=0 BV=infinite IBV=1mA
.MODEL MD3 D IS=1e-10 N=0.402362
.ENDS
*****************************************************************
.SUBCKT irfp5210 1 2 3
* Model generated on Mar 18, 96
* Model format: SPICE3
* Symmetry POWER MOS Model (Version 1.0)
* External Node Designations
* Node 1 -> Drain
* Node 2 -> Gate
* Node 3 -> Source
M1 9 7 8 8 MM L=100u W=100u
* Default values used in MM:
* The voltage-dependent capacitances are
* not included. Other default values are:
*   RS=0 RD=0 LD=0 CBD=0 CBS=0 CGBO=0
.MODEL MM PMOS LEVEL=1 IS=1e-32
+VTO=-3.812 LAMBDA=0.0047075 KP=13.1836
+CGSO=2.35118e-05 CGDO=1e-11
RS 8 3 0.0239468
D1 1 3 MD
.MODEL MD D IS=1.84954e-13 RS=0.00830863 N=0.954347 BV=-100
+IBV=10 EG=1 XTI=3.16131 TT=1.99994e-05
+CJO=1.88512e-09 VJ=1.14128 M=0.533776 FC=0.1
RDS 3 1 1e+06
RD 9 1 0.0120087
RG 2 7 7.71191
D2 5 4 MD1
* Default values used in MD1:
*   RS=0 EG=1.11 XTI=3.0 TT=0
*   BV=infinite IBV=1mA
.MODEL MD1 D IS=1e-32 N=50
+CJO=4.76014e-09 VJ=1.32275 M=0.797752 FC=1e-08
D3 5 0 MD2
* Default values used in MD2:
*   EG=1.11 XTI=3.0 TT=0 CJO=0
*   BV=infinite IBV=1mA
.MODEL MD2 D IS=1e-10 N=0.400054 RS=3e-06
RL 5 10 1
FI2 7 9 VFI2 -1
VFI2 4 0 0
EV16 10 0 9 7 1
CAP 11 10 6.16265e-09
FI1 7 9 VFI1 -1
VFI1 11 6 0
RCAP 6 10 1
D4 6 0 MD3
* Default values used in MD3:
*   EG=1.11 XTI=3.0 TT=0 CJO=0
*   RS=0 BV=infinite IBV=1mA
.MODEL MD3 D IS=1e-10 N=0.400054
.ENDS
*****************************************************************
.subckt irf6215 1 2 3
* Model generated on May 29, 96
* Model format: SPICE3
* Symmetry POWER MOS Model (Version 1.0)
* External Node Designations
* Node 1 -> Drain
* Node 2 -> Gate
* Node 3 -> Source
M1 9 7 8 8 MM L=100u W=100u
* Default values used in MM:
* The voltage-dependent capacitances are
* not included. Other default values are:
*   RS=0 RD=0 LD=0 CBD=0 CBS=0 CGBO=0
.MODEL MM PMOS LEVEL=1 IS=1e-32
+VTO=-3.73945 LAMBDA=0 KP=6.39481
+CGSO=7.26966e-06 CGDO=1e-11
RS 8 3 0.0685501
D1 1 3 MD
.MODEL MD D IS=5.32341e-11 RS=0.0237831 N=1.22148 BV=150
+IBV=0.00025 EG=1 XTI=1 TT=9.99872e-05
+CJO=6.31367e-10 VJ=0.919259 M=0.578859 FC=0.487172
RDS 3 1 6e+06
RD 9 1 0.172099
RG 2 7 8.99819
D2 5 4 MD1
* Default values used in MD1:
*   RS=0 EG=1.11 XTI=3.0 TT=0
*   BV=infinite IBV=1mA
.MODEL MD1 D IS=1e-32 N=50
+CJO=1.55088e-09 VJ=1.8157 M=0.883244 FC=1e-08
D3 5 0 MD2
* Default values used in MD2:
*   EG=1.11 XTI=3.0 TT=0 CJO=0
*   BV=infinite IBV=1mA
.MODEL MD2 D IS=1e-10 N=0.400008 RS=3e-06
RL 5 10 1
FI2 7 9 VFI2 -1
VFI2 4 0 0
EV16 10 0 9 7 1
CAP 11 10 2.29201e-09
FI1 7 9 VFI1 -1
VFI1 11 6 0
RCAP 6 10 1
D4 6 0 MD3
* Default values used in MD3:
*   EG=1.11 XTI=3.0 TT=0 CJO=0
*   RS=0 BV=infinite IBV=1mA
.MODEL MD3 D IS=1e-10 N=0.400008
.ENDS
*****************************************************************
.SUBCKT irf7604 1 2 3
* Model generated on May 21, 96
* Model format: SPICE3
* Symmetry POWER MOS Model (Version 1.0)
* External Node Designations
* Node 1 -> Drain
* Node 2 -> Gate
* Node 3 -> Source
M1 9 7 8 8 MM L=100u W=100u
* Default values used in MM:
* The voltage-dependent capacitances are
* not included. Other default values are:
*   RS=0 RD=0 LD=0 CBD=0 CBS=0 CGBO=0
.MODEL MM PMOS LEVEL=1 IS=1e-32
+VTO=-1.38357 LAMBDA=9.72395e-05 KP=5.51478
+CGSO=4.38675e-06 CGDO=4.78009e-07
RS 8 3 0.0001
D1 1 3 MD
.MODEL MD D IS=3.77433e-10 RS=0.0163258 N=1.31633 BV=20
+IBV=0.00025 EG=1.2 XTI=3.00308 TT=0.0001
+CJO=5.48159e-10 VJ=0.659128 M=0.384573 FC=0.5
RDS 3 1 1.6e+07
RD 9 1 0.0168866
RG 2 7 12.1772
D2 5 4 MD1
* Default values used in MD1:
*   RS=0 EG=1.11 XTI=3.0 TT=0
*   BV=infinite IBV=1mA
.MODEL MD1 D IS=1e-32 N=50
+CJO=9.53461e-10 VJ=0.5 M=0.609398 FC=1e-08
D3 5 0 MD2
* Default values used in MD2:
*   EG=1.11 XTI=3.0 TT=0 CJO=0
*   BV=infinite IBV=1mA
.MODEL MD2 D IS=1e-10 N=0.455146 RS=3e-06
RL 5 10 1
FI2 7 9 VFI2 -1
VFI2 4 0 0
EV16 10 0 9 7 1
CAP 11 10 1.49506e-09
FI1 7 9 VFI1 -1
VFI1 11 6 0
RCAP 6 10 1
D4 6 0 MD3
* Default values used in MD3:
*   EG=1.11 XTI=3.0 TT=0 CJO=0
*   RS=0 BV=infinite IBV=1mA
.MODEL MD3 D IS=1e-10 N=0.455146
.ENDS
*****************************************************************
.SUBCKT irf9640 1 2 3
* Model generated on May 21, 96
* Model format: SPICE3
* Symmetry POWER MOS Model (Version 1.0)
* External Node Designations
* Node 1 -> Drain
* Node 2 -> Gate
* Node 3 -> Source
M1 9 7 8 8 MM L=100u W=100u
* Default values used in MM:
* The voltage-dependent capacitances are
* not included. Other default values are:
*   RS=0 RD=0 LD=0 CBD=0 CBS=0 CGBO=0
.MODEL MM PMOS LEVEL=1 IS=1e-32
+VTO=-3.8062 LAMBDA=0.0228396 KP=10.7224
+CGSO=1.09465e-05 CGDO=1e-11
RS 8 3 0.101556
D1 1 3 MD
.MODEL MD D IS=1e-17 RS=0.185714 N=1.5 BV=200
+IBV=0.00025 EG=1.2 XTI=4 TT=-2.3077e-13
+CJO=1.22255e-09 VJ=2.42988 M=0.605683 FC=0.493595
RDS 3 1 2e+06
RD 9 1 0.261579
RG 2 7 6.81119
D2 5 4 MD1
* Default values used in MD1:
*   RS=0 EG=1.11 XTI=3.0 TT=0
*   BV=infinite IBV=1mA
.MODEL MD1 D IS=1e-32 N=50
+CJO=8.6947e-10 VJ=2.34088 M=0.9 FC=1e-08
D3 5 0 MD2
* Default values used in MD2:
*   EG=1.11 XTI=3.0 TT=0 CJO=0
*   BV=infinite IBV=1mA
.MODEL MD2 D IS=1e-10 N=0.402798 RS=3e-06
RL 5 10 1
FI2 7 9 VFI2 -1
VFI2 4 0 0
EV16 10 0 9 7 1
CAP 11 10 1.8148e-09
FI1 7 9 VFI1 -1
VFI1 11 6 0
RCAP 6 10 1
D4 6 0 MD3
* Default values used in MD3:
*   EG=1.11 XTI=3.0 TT=0 CJO=0
*   RS=0 BV=infinite IBV=1mA
.MODEL MD3 D IS=1e-10 N=0.402798
.ENDS
*****************************************************************
.SUBCKT irlml6302 1 2 3
* Model generated on Apr 23, 96
* Model format: SPICE3
* Symmetry POWER MOS Model (Version 1.0)
* External Node Designations
* Node 1 -> Drain
* Node 2 -> Gate
* Node 3 -> Source
M1 9 7 8 8 MM L=100u W=100u
* Default values used in MM:
* The voltage-dependent capacitances are
* not included. Other default values are:
*   RS=0 RD=0 LD=0 CBD=0 CBS=0 CGBO=0
.MODEL MM PMOS LEVEL=1 IS=1e-32
+VTO=-1.37186 LAMBDA=0 KP=1.46142
+CGSO=7.46915e-07 CGDO=1.30976e-07
RS 8 3 0.160522
D1 1 3 MD
.MODEL MD D IS=1.58288e-10 RS=0.0803102 N=1.3978 BV=20
+IBV=0.00025 EG=1 XTI=4 TT=0.0001
+CJO=7.48552e-11 VJ=1.0433 M=0.38365 FC=0.5
RDS 3 1 1.6e+07
RD 9 1 0.0792372
RG 2 7 35.953
D2 5 4 MD1
* Default values used in MD1:
*   RS=0 EG=1.11 XTI=3.0 TT=0
*   BV=infinite IBV=1mA
.MODEL MD1 D IS=1e-32 N=50
+CJO=1.80598e-10 VJ=0.5 M=0.713713 FC=1e-08
D3 5 0 MD2
* Default values used in MD2:
*   EG=1.11 XTI=3.0 TT=0 CJO=0
*   BV=infinite IBV=1mA
.MODEL MD2 D IS=1e-10 N=0.400002 RS=3e-06
RL 5 10 1
FI2 7 9 VFI2 -1
VFI2 4 0 0
EV16 10 0 9 7 1
CAP 11 10 2.96603e-10
FI1 7 9 VFI1 -1
VFI1 11 6 0
RCAP 6 10 1
D4 6 0 MD3
* Default values used in MD3:
*   EG=1.11 XTI=3.0 TT=0 CJO=0
*   RS=0 BV=infinite IBV=1mA
.MODEL MD3 D IS=1e-10 N=0.400002
.ENDS
********************************************************************
*************  MODELS ADDED ON AUG 21/1997               ***********
*************               **                           ***********
*************               **                           ***********
*************            *  **  *                        ***********
*************             * ** *                         ***********
*************              ****                          ***********
*************               **                           ***********
********************************************************************
**************************************
*      Models Generated by MODPEX    *
*Copyright(c) Symmetry Design Systems*
*         All Rights Reserved        *
*    UNPUBLISHED LICENSED SOFTWARE   *
*   Contains Proprietary Information *
*      Which is The Property of      *
*     SYMMETRY OR ITS LICENSORS      *
*Commercial Use or Resale Restricted *
*   by Symmetry License Agreement    *
**************************************
******************************************************************
.SUBCKT irf4905 1 2 3
* Model generated on Jun 19, 96
* Model format: SPICE3
* Symmetry POWER MOS Model (Version 1.0)
* External Node Designations
* Node 1 -> Drain
* Node 2 -> Gate
* Node 3 -> Source
M1 9 7 8 8 MM L=100u W=100u
* Default values used in MM:
* The voltage-dependent capacitances are
* not included. Other default values are:
*   RS=0 RD=0 LD=0 CBD=0 CBS=0 CGBO=0
.MODEL MM PMOS LEVEL=1 IS=1e-32
+VTO=-3.53713 LAMBDA=0.00549383 KP=23.3701
+CGSO=2.84439e-05 CGDO=1e-11
RS 8 3 0.0101265
D1 1 3 MD
.MODEL MD D IS=1.29014e-08 RS=0.00297795 N=1.46717 BV=55
+IBV=0.00025 EG=1.2 XTI=4 TT=0
+CJO=3.56968e-09 VJ=1.17553 M=0.500933 FC=0.5
RDS 3 1 2.2e+06
RD 9 1 0.0001
RG 2 7 6
D2 5 4 MD1
* Default values used in MD1:
*   RS=0 EG=1.11 XTI=3.0 TT=0
*   BV=infinite IBV=1mA
.MODEL MD1 D IS=1e-32 N=50
+CJO=4.83772e-09 VJ=0.625334 M=0.543532 FC=1e-08
D3 5 0 MD2
* Default values used in MD2:
*   EG=1.11 XTI=3.0 TT=0 CJO=0
*   BV=infinite IBV=1mA
.MODEL MD2 D IS=1e-10 N=0.4 RS=3e-06
RL 5 10 1
FI2 7 9 VFI2 -1
VFI2 4 0 0
EV16 10 0 9 7 1
CAP 11 10 6.08035e-09
FI1 7 9 VFI1 -1
VFI1 11 6 0
RCAP 6 10 1
D4 6 0 MD3
* Default values used in MD3:
*   EG=1.11 XTI=3.0 TT=0 CJO=0
*   RS=0 BV=infinite IBV=1mA
.MODEL MD3 D IS=1e-10 N=0.4
.ENDS
*******************************************************************
.SUBCKT irf4905s 1 2 3
* Model generated on Dec  2, 96
* MODEL FORMAT: SPICE3
* Symmetry POWER MOS Model (Version 1.0)
* External Node Designations
* Node 1 -> Drain
* Node 2 -> Gate
* Node 3 -> Source
M1 9 7 8 8 MM L=100u W=100u
* Default values used in MM:
* The voltage-dependent capacitances are
* not included. Other default values are:
*   RS=0 RD=0 LD=0 CBD=0 CBS=0 CGBO=0
.MODEL MM PMOS LEVEL=1 IS=1e-32
+VTO=-3.51981 LAMBDA=0 KP=23.4105
+CGSO=2.85401e-05 CGDO=1e-11
RS 8 3 0.00996054
D1 1 3 MD
.MODEL MD D IS=1.85183e-11 RS=0.00355627 N=1.08135 BV=55
+IBV=10 EG=1.2 XTI=4 TT=0.0001
+CJO=3.78706e-09 VJ=0.8596 M=0.468877 FC=0.5
RDS 3 1 2.2e+06
RD 9 1 0.0001
RG 2 7 6.94341
D2 5 4 MD1
* Default values used in MD1:
*   RS=0 EG=1.11 XTI=3.0 TT=0
*   BV=infinite IBV=1mA
.MODEL MD1 D IS=1e-32 N=50
+CJO=4.63428e-09 VJ=0.754894 M=0.564276 FC=1e-08
D3 5 0 MD2
* Default values used in MD2:
*   EG=1.11 XTI=3.0 TT=0 CJO=0
*   BV=infinite IBV=1mA
.MODEL MD2 D IS=1e-10 N=0.400002 RS=3e-06
RL 5 10 1
FI2 7 9 VFI2 -1
VFI2 4 0 0
EV16 10 0 9 7 1
CAP 11 10 6.08305e-09
FI1 7 9 VFI1 -1
VFI1 11 6 0
RCAP 6 10 1
D4 6 0 MD3
* Default values used in MD3:
*   EG=1.11 XTI=3.0 TT=0 CJO=0
*   RS=0 BV=infinite IBV=1mA
.MODEL MD3 D IS=1e-10 N=0.400002
.ENDS irf4905s
*************************************************************
.SUBCKT irf7105p 1 2 3
* Model generated on Jan  2, 97
* MODEL FORMAT: SPICE3
* Symmetry POWER MOS Model (Version 1.0)
* External Node Designations
* Node 1 -> Drain
* Node 2 -> Gate
* Node 3 -> Source
M1 9 7 8 8 MM L=100u W=100u
* Default values used in MM:
* The voltage-dependent capacitances are
* not included. Other default values are:
*   RS=0 RD=0 LD=0 CBD=0 CBS=0 CGBO=0
.MODEL MM PMOS LEVEL=1 IS=1e-32
+VTO=-2.14363 LAMBDA=0.0199678 KP=1.58922
+CGSO=1.45638e-06 CGDO=2.19493e-07
RS 8 3 0.00500164
D1 1 3 MD
.MODEL MD D IS=4.50807e-11 RS=0.0334569 N=1.25545 BV=28
+IBV=0.00025 EG=1 XTI=2.31361 TT=0.0001
+CJO=1.84342e-10 VJ=1.33991 M=0.455338 FC=0.499493
RDS 3 1 2e+07
RD 9 1 0.0629257
RG 2 7 11.4646
D2 5 4 MD1
* Default values used in MD1:
*   RS=0 EG=1.11 XTI=3.0 TT=0
*   BV=infinite IBV=1mA
.MODEL MD1 D IS=1e-32 N=50
+CJO=2.60958e-10 VJ=0.5 M=0.520449 FC=1e-08
D3 5 0 MD2
* Default values used in MD2:
*   EG=1.11 XTI=3.0 TT=0 CJO=0
*   BV=infinite IBV=1mA
.MODEL MD2 D IS=1e-10 N=0.417949 RS=3.00001e-06
RL 5 10 1
FI2 7 9 VFI2 -1
VFI2 4 0 0
EV16 10 0 9 7 1
CAP 11 10 3.21132e-10
FI1 7 9 VFI1 -1
VFI1 11 6 0
RCAP 6 10 1
D4 6 0 MD3
* Default values used in MD3:
*   EG=1.11 XTI=3.0 TT=0 CJO=0
*   RS=0 BV=infinite IBV=1mA
.MODEL MD3 D IS=1e-10 N=0.417949
.ENDS irf7105p
**************************************************************
.SUBCKT irf7106p 1 2 3
* Model generated on Oct 24, 96
* MODEL FORMAT: SPICE3
* Symmetry POWER MOS Model (Version 1.0)
* External Node Designations
* Node 1 -> Drain
* Node 2 -> Gate
* Node 3 -> Source
M1 9 7 8 8 MM L=100u W=100u
* Default values used in MM:
* The voltage-dependent capacitances are
* not included. Other default values are:
*   RS=0 RD=0 LD=0 CBD=0 CBS=0 CGBO=0
.MODEL MM PMOS LEVEL=1 IS=1e-32
+VTO=-2.23893 LAMBDA=0.012297 KP=2.54278
+CGSO=1.99685e-06 CGDO=1.00588e-11
RS 8 3 0.105154
D1 1 3 MD
.MODEL MD D IS=1.11074e-12 RS=0.1549 N=1.5 BV=20
+IBV=10 EG=1 XTI=1 TT=4.54768e-05
+CJO=4.08232e-10 VJ=4.56874 M=0.635326 FC=0.8
RDS 3 1 8e+06
RD 9 1 0.0105939
RG 2 7 20.1782
D2 5 4 MD1
* Default values used in MD1:
*   RS=0 EG=1.11 XTI=3.0 TT=0
*   BV=infinite IBV=1mA
.MODEL MD1 D IS=1e-32 N=50
+CJO=5.31993e-10 VJ=0.5 M=0.533544 FC=1e-08
D3 5 0 MD2
* Default values used in MD2:
*   EG=1.11 XTI=3.0 TT=0 CJO=0
*   BV=infinite IBV=1mA
.MODEL MD2 D IS=1e-10 N=0.786212 RS=3.00001e-06
RL 5 10 1
FI2 7 9 VFI2 -1
VFI2 4 0 0
EV16 10 0 9 7 1
CAP 11 10 7.79045e-10
FI1 7 9 VFI1 -1
VFI1 11 6 0
RCAP 6 10 1
D4 6 0 MD3
* Default values used in MD3:
*   EG=1.11 XTI=3.0 TT=0 CJO=0
*   RS=0 BV=infinite IBV=1mA
.MODEL MD3 D IS=1e-10 N=0.786212
.ENDS irf7106p
*****************************************************************
.SUBCKT irf7304 1 2 3
* Model generated on Dec 27, 96
* MODEL FORMAT: SPICE3
* Symmetry POWER MOS Model (Version 1.0)
* External Node Designations
* Node 1 -> Drain
* Node 2 -> Gate
* Node 3 -> Source
M1 9 7 8 8 MM L=100u W=100u
* Default values used in MM:
* The voltage-dependent capacitances are
* not included. Other default values are:
*   RS=0 RD=0 LD=0 CBD=0 CBS=0 CGBO=0
.MODEL MM PMOS LEVEL=1 IS=1e-32
+VTO=-1.23644 LAMBDA=0 KP=13.3758
+CGSO=4.62094e-06 CGDO=1e-11
RS 8 3 0.0342266
D1 1 3 MD
.MODEL MD D IS=5.88003e-09 RS=0.0322189 N=1.5 BV=20
+IBV=0.00025 EG=1.2 XTI=4 TT=2.95516e-14
+CJO=6.15005e-10 VJ=0.5 M=0.432547 FC=0.5
RDS 3 1 1.6e+06
RD 9 1 0.0141686
RG 2 7 4.48673
D2 5 4 MD1
* Default values used in MD1:
*   RS=0 EG=1.11 XTI=3.0 TT=0
*   BV=infinite IBV=1mA
.MODEL MD1 D IS=1e-32 N=50
+CJO=1.587e-09 VJ=1.02094 M=0.9 FC=1e-08
D3 5 0 MD2
* Default values used in MD2:
*   EG=1.11 XTI=3.0 TT=0 CJO=0
*   BV=infinite IBV=1mA
.MODEL MD2 D IS=1e-10 N=1 RS=3e-06
RL 5 10 1
FI2 7 9 VFI2 -1
VFI2 4 0 0
EV16 10 0 9 7 1
CAP 11 10 2.187e-09
FI1 7 9 VFI1 -1
VFI1 11 6 0
RCAP 6 10 1
D4 6 0 MD3
* Default values used in MD3:
*   EG=1.11 XTI=3.0 TT=0 CJO=0
*   RS=0 BV=infinite IBV=1mA
.MODEL MD3 D IS=1e-10 N=1
.ENDS irf7304
***************************************************************
.SUBCKT irf7306 1 2 3
* Model generated on Dec 24, 96
* MODEL FORMAT: SPICE3
* Symmetry POWER MOS Model (Version 1.0)
* External Node Designations
* Node 1 -> Drain
* Node 2 -> Gate
* Node 3 -> Source
M1 9 7 8 8 MM L=100u W=100u
* Default values used in MM:
* The voltage-dependent capacitances are
* not included. Other default values are:
*   RS=0 RD=0 LD=0 CBD=0 CBS=0 CGBO=0
.MODEL MM PMOS LEVEL=1 IS=1e-32
+VTO=-2.05324 LAMBDA=0 KP=5.86065
+CGSO=3.67785e-06 CGDO=2.45351e-07
RS 8 3 0.060227
D1 1 3 MD
.MODEL MD D IS=4.32528e-11 RS=0.0319379 N=1.22325 BV=30
+IBV=0.00025 EG=1.2 XTI=4 TT=2.22396e-06
+CJO=4.69867e-10 VJ=0.742899 M=0.411394 FC=0.514109
RDS 3 1 2.4e+07
RD 9 1 0.0001
RG 2 7 7.169
D2 5 4 MD1
* Default values used in MD1:
*   RS=0 EG=1.11 XTI=3.0 TT=0
*   BV=infinite IBV=1mA
.MODEL MD1 D IS=1e-32 N=50
+CJO=6.71404e-10 VJ=0.5 M=0.586312 FC=1e-08
D3 5 0 MD2
* Default values used in MD2:
*   EG=1.11 XTI=3.0 TT=0 CJO=0
*   BV=infinite IBV=1mA
.MODEL MD2 D IS=1e-10 N=0.400234 RS=3.00015e-06
RL 5 10 1
FI2 7 9 VFI2 -1
VFI2 4 0 0
EV16 10 0 9 7 1
CAP 11 10 9.26446e-10
FI1 7 9 VFI1 -1
VFI1 11 6 0
RCAP 6 10 1
D4 6 0 MD3
* Default values used in MD3:
*   EG=1.11 XTI=3.0 TT=0 CJO=0
*   RS=0 BV=infinite IBV=1mA
.MODEL MD3 D IS=1e-10 N=0.400234
.ENDS irf7306
***************************************************************
.SUBCKT irf7416 1 2 3
* Model generated on Jun 24, 96
* Model format: SPICE3
* Symmetry POWER MOS Model (Version 1.0)
* External Node Designations
* Node 1 -> Drain
* Node 2 -> Gate
* Node 3 -> Source
M1 9 7 8 8 MM L=100u W=100u
* Default values used in MM:
* The voltage-dependent capacitances are
* not included. Other default values are:
*   RS=0 RD=0 LD=0 CBD=0 CBS=0 CGBO=0
.MODEL MM PMOS LEVEL=1 IS=1e-32
+VTO=-2.49076 LAMBDA=0.0153351 KP=22.3913
+CGSO=1.34611e-05 CGDO=3.32209e-08
RS 8 3 0.0118278
D1 1 3 MD
.MODEL MD D IS=1.41408e-08 RS=0.00429625 N=1.5 BV=30
+IBV=0.00025 EG=1.1881 XTI=3.32208 TT=0.0001
+CJO=2.0599e-09 VJ=0.791946 M=0.414066 FC=0.5
RDS 3 1 2.4e+07
RD 9 1 0.0001
RG 2 7 5.5413
D2 5 4 MD1
* Default values used in MD1:
*   RS=0 EG=1.11 XTI=3.0 TT=0
*   BV=infinite IBV=1mA